-------------------------------------------------------
          Amber 20 PMEMD                              2020
          -------------------------------------------------------

  [-O]verwriting output

File Assignments:

 Here is the input file:

 &cntrl
   nstlim=500000, nscm=1000,
   ntx=5, irest=1, ntpr=1000,
   tempi=300.0, temp0=300.0, ntt=3, gamma_ln=2.0,
   ntp=1, pres0=1.01325, taup=5.0,
   ntb=2, igb=0, cut=10.0,
   dt=0.002, ig=-1,
   ntc=2, ntf=2,
   iwrap=0,
   ntwr=1000, ntwx=50000, ntave=1000,
   ioutfm=1, ntwv=-1,
   ifsc = 0, icfe=1,
   clambda=0.68392,
   timask1=':1',
   timask2=':2', crgmask = ':2',
/

Note: ig = -1. Setting random seed to    71970 based on wallclock time in
      microseconds.

--------------------------------------------------------------------------------
   1.  RESOURCE   USE:
--------------------------------------------------------------------------------

 getting box info from netcdf restart file
 NATOM  =   20855 NTYPES =       6 NBONH =   20847 MBONA  =       6
 NTHETH =      12 MTHETA =       6 NPHIH =      24 MPHIA  =       2
 NHPARM =       0 NPARM  =       0 NNB   =   27832 NRES   =    6949
 NBONA  =       6 NTHETA =       6 NPHIA =       2 NUMBND =       5
 NUMANG =       4 NPTRA  =       3 NATYP =       6 NPHB   =       1
 IFBOX  =       2 NMXRS  =       7 IFCAP =       0 NEXTRA =       0
 NCOPY  =       0

     BOX TYPE: TRUNCATED OCTAHEDRON

--------------------------------------------------------------------------------
   2.  CONTROL  DATA  FOR  THE  RUN
--------------------------------------------------------------------------------

default_name

General flags:
     imin    =       0, nmropt  =       0

Nature and format of input:
     ntx     =       5, irest   =       1, ntrx    =       1

Nature and format of output:
     ntxo    =       2, ntpr    =    1000, ntrx    =       1, ntwr    =    1000
     iwrap   =       0, ntwx    =   50000, ntwv    =      -1, ntwe    =       0
     ioutfm  =       1, ntwprt  =       0, idecomp =       0, rbornstat=      0

Potential function:
     ntf     =       2, ntb     =       2, igb     =       0, nsnb    =      25
     ipol    =       0, gbsa    =       0, iesp    =       0
     dielc   =   1.00000, cut     =  10.00000, intdiel =   1.00000

Frozen or restrained atoms:
     ibelly  =       0, ntr     =       0

Molecular dynamics:
     nstlim  =    500000, nscm    =      1000, nrespa  =         1
     t       =   0.00000, dt      =   0.00200, vlimit  =  -1.00000

Langevin dynamics temperature regulation:
     ig      =   71970
     temp0   = 300.00000, tempi   = 300.00000, gamma_ln=   2.00000

Pressure regulation:
     ntp     =       1
     pres0   =   1.01325, comp    =  44.60000, taup    =   5.00000

SHAKE:
     ntc     =       2, jfastw  =       0
     tol     =   0.00001

Free energy options:
     icfe    =       1, ifsc    =       0, klambda =       1
     clambda =  0.6839, scalpha =  0.5000, scbeta  = 12.0000
     sceeorder =       2
     dynlmb =  0.0000 logdvdl =       0

Ewald parameters:
     verbose =       0, ew_type =       0, nbflag  =       1, use_pme =       1
     vdwmeth =       1, eedmeth =       1, netfrc  =       1
     Box X =   66.953   Box Y =   66.953   Box Z =   66.953
     Alpha =  109.471   Beta  =  109.471   Gamma =  109.471
     NFFT1 =   64       NFFT2 =   64       NFFT3 =   64
     Cutoff=   10.000   Tol   =0.100E-04
     Ewald Coefficient =  0.27511
     Interpolation order =    4
     TI Mask 1 :1; matches      7 atoms
     TI Mask 2 :2; matches      7 atoms
     TI region 1:   20848 atoms
     TI region 2:   20848 atoms
Removing charge of      -0.8188 from atom       8
Removing charge of      -0.8188 from atom       9
Removing charge of       0.8054 from atom      10
Removing charge of      -0.1021 from atom      11
Removing charge of      -0.0219 from atom      12
Removing charge of      -0.0219 from atom      13
Removing charge of      -0.0219 from atom      14
Total charge of  -0.99999900 removed from       7 atoms
     Checking for mismatched coordinates.

--------------------------------------------------------------------------------
   3.  ATOMIC COORDINATES AND VELOCITIES
--------------------------------------------------------------------------------

default_name
 begin time read from input coords =   200.000 ps

 Number of triangulated 3-point waters found:     6947

     Sum of charges for TI region  1 =  -0.99999900
     Skip neutralizing charges...

     Sum of charges for TI region  2 =   0.00000000
     Skip neutralizing charges...

--------------------------------------------------------------------------------
   4.  RESULTS
 NSTEP =     1000   TIME(PS) =     202.000  TEMP(K) =   299.22  PRESS =  -812.4
 Etot   =    -52917.6419  EKtot   =     12397.3732  EPtot      =    -65315.0151
 BOND   =         1.3856  ANGLE   =         5.6005  DIHED      =         5.2009
 1-4 NB =         0.1246  1-4 EEL =         3.2157  VDWAALS    =      9588.6802
 EELEC  =    -74919.2226  EHBOND  =         0.0000  RESTRAINT  =         0.0000
 EKCMT  =      6207.4793  VIRIAL  =     10198.0380  VOLUME     =    227501.3837
                                                    Density    =         0.9140
 DV/DL  =        54.2563
 ------------------------------------------------------------------------------

      A V E R A G E S   O V E R    1000 S T E P S

 NSTEP =     1000   TIME(PS) =     202.000  TEMP(K) =   300.61  PRESS =  -864.3
 Etot   =    -52572.9526  EKtot   =     12455.1104  EPtot      =    -65028.0630
 BOND   =         0.7375  ANGLE   =         5.3483  DIHED      =         5.2655
 1-4 NB =         0.4613  1-4 EEL =         3.3194  VDWAALS    =      9485.2734
 EELEC  =    -74528.4684  EHBOND  =         0.0000  RESTRAINT  =         0.0000
 EKCMT  =      6260.8523  VIRIAL  =     10539.1109  VOLUME     =    229218.3848
                                                    Density    =         0.9071
 DV/DL  =        51.1692
 ------------------------------------------------------------------------------

      R M S  F L U C T U A T I O N S

 NSTEP =     1000   TIME(PS) =     202.000  TEMP(K) =     1.96  PRESS =   117.0
 Etot   =       115.3441  EKtot   =        81.3071  EPtot      =       106.4361
 BOND   =         0.5500  ANGLE   =         0.8687  DIHED      =         0.0614
 1-4 NB =         0.2668  1-4 EEL =         0.0531  VDWAALS    =       118.5846
 EELEC  =       181.2969  EHBOND  =         0.0000  RESTRAINT  =         0.0000
 EKCMT  =        65.9900  VIRIAL  =       583.3345  VOLUME     =      1003.5842
                                                    Density    =         0.0040
 DV/DL  =         9.5752
 ------------------------------------------------------------------------------

      A V E R A G E S   O V E R    1000 S T E P S

 NSTEP =     1000   TIME(PS) =     202.000  TEMP(K) =   300.61  PRESS =  -864.3
 Etot   =    -52572.9526  EKtot   =     12455.1104  EPtot      =    -65028.0630
 BOND   =         0.7375  ANGLE   =         5.3483  DIHED      =         5.2655
 1-4 NB =         0.4613  1-4 EEL =         3.3194  VDWAALS    =      9485.2734
 EELEC  =    -74528.4684  EHBOND  =         0.0000  RESTRAINT  =         0.0000
 EKCMT  =      6260.8523  VIRIAL  =     10539.1109  VOLUME     =    229218.3848
                                                    Density    =         0.9071
 DV/DL  =        51.1692
 ------------------------------------------------------------------------------

      R M S  F L U C T U A T I O N S

 NSTEP =     1000   TIME(PS) =     202.000  TEMP(K) =     1.96  PRESS =   117.0
 Etot   =       115.3441  EKtot   =        81.3071  EPtot      =       106.4361
 BOND   =         0.5500  ANGLE   =         0.8687  DIHED      =         0.0614
 1-4 NB =         0.2668  1-4 EEL =         0.0531  VDWAALS    =       118.5846
 EELEC  =       181.2969  EHBOND  =         0.0000  RESTRAINT  =         0.0000
 EKCMT  =        65.9900  VIRIAL  =       583.3345  VOLUME     =      1003.5842
                                                    Density    =         0.0040
 DV/DL  =         9.5752
 ------------------------------------------------------------------------------

      DV/DL, AVERAGES OVER    1000 STEPS

 NSTEP =     1000   TIME(PS) =     202.000  TEMP(K) =     1.96  PRESS =     0.0
 Etot   =         0.0000  EKtot   =         0.0000  EPtot      =        51.1692
 BOND   =         0.0000  ANGLE   =         0.0000  DIHED      =         0.0000
 1-4 NB =         0.0000  1-4 EEL =       -10.5019  VDWAALS    =         0.0000
 EELEC  =        61.6711  EHBOND  =         0.0000  RESTRAINT  =         0.0000
 EKCMT  =         0.0000  VIRIAL  =         0.0000  VOLUME     =         0.0000
                                                    Density    =         0.0000
 DV/DL  =        51.1692
 ------------------------------------------------------------------------------

      A V E R A G E S   O V E R    1000 S T E P S

 NSTEP =     2000   TIME(PS) =     204.000  TEMP(K) =   301.24  PRESS =  -778.8
 Etot   =    -52748.6302  EKtot   =     12481.0618  EPtot      =    -65229.6920
 BOND   =         0.9467  ANGLE   =         5.4184  DIHED      =         5.2589
 1-4 NB =         0.4875  1-4 EEL =         3.3191  VDWAALS    =      9528.2383
 EELEC  =    -74773.3609  EHBOND  =         0.0000  RESTRAINT  =         0.0000
 EKCMT  =      6261.4419  VIRIAL  =     10060.5053  VOLUME     =    225865.5001
                                                    Density    =         0.9206
 DV/DL  =        53.1973
 ------------------------------------------------------------------------------

      R M S  F L U C T U A T I O N S

 NSTEP =     2000   TIME(PS) =     204.000  TEMP(K) =     2.34  PRESS =   131.2
 Etot   =       116.6873  EKtot   =        96.9530  EPtot      =        93.9223
 BOND   =         0.7137  ANGLE   =         1.0627  DIHED      =         0.0533
 1-4 NB =         0.3653  1-4 EEL =         0.0743  VDWAALS    =       125.1534
 EELEC  =       181.6549  EHBOND  =         0.0000  RESTRAINT  =         0.0000
 EKCMT  =        68.8971  VIRIAL  =       632.5696  VOLUME     =       901.1689
                                                    Density    =         0.0037
 DV/DL  =        12.6384
 ------------------------------------------------------------------------------

      A V E R A G E S   O V E R    1000 S T E P S

 NSTEP =     2000   TIME(PS) =     204.000  TEMP(K) =   301.24  PRESS =  -778.8
 Etot   =    -52748.6302  EKtot   =     12481.0618  EPtot      =    -65229.6920
 BOND   =         0.9467  ANGLE   =         5.4184  DIHED      =         5.2589
 1-4 NB =         0.4875  1-4 EEL =         3.3191  VDWAALS    =      9528.2383
 EELEC  =    -74773.3609  EHBOND  =         0.0000  RESTRAINT  =         0.0000
 EKCMT  =      6261.4419  VIRIAL  =     10060.5053  VOLUME     =    225865.5001
                                                    Density    =         0.9206
 DV/DL  =        53.1973
 ------------------------------------------------------------------------------

      R M S  F L U C T U A T I O N S

 NSTEP =     2000   TIME(PS) =     204.000  TEMP(K) =     2.34  PRESS =   131.2
 Etot   =       116.6873  EKtot   =        96.9530  EPtot      =        93.9223
 BOND   =         0.7137  ANGLE   =         1.0627  DIHED      =         0.0533
 1-4 NB =         0.3653  1-4 EEL =         0.0743  VDWAALS    =       125.1534
 EELEC  =       181.6549  EHBOND  =         0.0000  RESTRAINT  =         0.0000
 EKCMT  =        68.8971  VIRIAL  =       632.5696  VOLUME     =       901.1689
                                                    Density    =         0.0037
 DV/DL  =        12.6384
 ------------------------------------------------------------------------------

      DV/DL, AVERAGES OVER    1000 STEPS

 NSTEP =     2000   TIME(PS) =     204.000  TEMP(K) =     2.34  PRESS =     0.0
 Etot   =         0.0000  EKtot   =         0.0000  EPtot      =        53.1973
 BOND   =         0.0000  ANGLE   =         0.0000  DIHED      =         0.0000
 1-4 NB =         0.0000  1-4 EEL =       -10.5008  VDWAALS    =         0.0000
 EELEC  =        63.6981  EHBOND  =         0.0000  RESTRAINT  =         0.0000
 EKCMT  =         0.0000  VIRIAL  =         0.0000  VOLUME     =         0.0000
                                                    Density    =         0.0000
 DV/DL  =        53.1973
 ------------------------------------------------------------------------------

      A V E R A G E S   O V E R    1000 S T E P S

 NSTEP =   500000   TIME(PS) =    1200.000  TEMP(K) =   299.79  PRESS =   -30.8
 Etot   =    -53785.4433  EKtot   =     12421.0900  EPtot      =    -66206.5333
 BOND   =         1.0547  ANGLE   =         5.0780  DIHED      =         5.2809
 1-4 NB =         0.4453  1-4 EEL =         3.3178  VDWAALS    =      9884.7124
 EELEC  =    -76106.4223  EHBOND  =         0.0000  RESTRAINT  =         0.0000
 EKCMT  =      6223.6052  VIRIAL  =      6364.5032  VOLUME     =    211871.2319
                                                    Density    =         0.9814
 DV/DL  =        52.9189
 ------------------------------------------------------------------------------

      R M S  F L U C T U A T I O N S

 NSTEP =   500000   TIME(PS) =    1200.000  TEMP(K) =     1.79  PRESS =   117.1
 Etot   =        82.0501  EKtot   =        74.3474  EPtot      =        92.5468
 BOND   =         0.8201  ANGLE   =         0.9184  DIHED      =         0.0754
 1-4 NB =         0.2878  1-4 EEL =         0.0635  VDWAALS    =       104.6674
 EELEC  =       148.1025  EHBOND  =         0.0000  RESTRAINT  =         0.0000
 EKCMT  =        54.6668  VIRIAL  =       536.8850  VOLUME     =        41.3701
                                                    Density    =         0.0002
 DV/DL  =        10.7600
 ------------------------------------------------------------------------------

      A V E R A G E S   O V E R    1000 S T E P S

 NSTEP =   500000   TIME(PS) =    1200.000  TEMP(K) =   299.79  PRESS =   -30.8
 Etot   =    -53785.4433  EKtot   =     12421.0900  EPtot      =    -66206.5333
 BOND   =         1.0547  ANGLE   =         5.0780  DIHED      =         5.2809
 1-4 NB =         0.4453  1-4 EEL =         3.3178  VDWAALS    =      9884.7124
 EELEC  =    -76106.4223  EHBOND  =         0.0000  RESTRAINT  =         0.0000
 EKCMT  =      6223.6052  VIRIAL  =      6364.5032  VOLUME     =    211871.2319
                                                    Density    =         0.9814
 DV/DL  =        52.9189
 ------------------------------------------------------------------------------

      R M S  F L U C T U A T I O N S

 NSTEP =   500000   TIME(PS) =    1200.000  TEMP(K) =     1.79  PRESS =   117.1
 Etot   =        82.0501  EKtot   =        74.3474  EPtot      =        92.5468
 BOND   =         0.8201  ANGLE   =         0.9184  DIHED      =         0.0754
 1-4 NB =         0.2878  1-4 EEL =         0.0635  VDWAALS    =       104.6674
 EELEC  =       148.1025  EHBOND  =         0.0000  RESTRAINT  =         0.0000
 EKCMT  =        54.6668  VIRIAL  =       536.8850  VOLUME     =        41.3701
                                                    Density    =         0.0002
 DV/DL  =        10.7600
 ------------------------------------------------------------------------------

      DV/DL, AVERAGES OVER    1000 STEPS

 NSTEP =   500000   TIME(PS) =    1200.000  TEMP(K) =     1.79  PRESS =     0.0
 Etot   =         0.0000  EKtot   =         0.0000  EPtot      =        52.9189
 BOND   =         0.0000  ANGLE   =         0.0000  DIHED      =         0.0000
 1-4 NB =         0.0000  1-4 EEL =       -10.4967  VDWAALS    =         0.0000
 EELEC  =        63.4156  EHBOND  =         0.0000  RESTRAINT  =         0.0000
 EKCMT  =         0.0000  VIRIAL  =         0.0000  VOLUME     =         0.0000
                                                    Density    =         0.0000
 DV/DL  =        52.9189
 ------------------------------------------------------------------------------

      A V E R A G E S   O V E R  500000 S T E P S

 NSTEP =   500000   TIME(PS) =    1200.000  TEMP(K) =   300.24  PRESS =    -8.7
 Etot   =    -53794.6527  EKtot   =     12439.8163  EPtot      =    -66234.4690
 BOND   =         0.9708  ANGLE   =         5.1521  DIHED      =         5.2807
 1-4 NB =         0.4441  1-4 EEL =         3.3181  VDWAALS    =      9903.3792
 EELEC  =    -76153.0139  EHBOND  =         0.0000  RESTRAINT  =         0.0000
 EKCMT  =      6240.0926  VIRIAL  =      6281.9541  VOLUME     =    211809.8133
                                                    Density    =         0.9817
 DV/DL  =        52.2338
 ------------------------------------------------------------------------------

      R M S  F L U C T U A T I O N S

 NSTEP =   500000   TIME(PS) =    1200.000  TEMP(K) =     2.06  PRESS =   147.6
 Etot   =       174.4315  EKtot   =        85.2234  EPtot      =       150.2913
 BOND   =         0.7987  ANGLE   =         1.2051  DIHED      =         0.0902
 1-4 NB =         0.2599  1-4 EEL =         0.0543  VDWAALS    =       128.4525
 EELEC  =       229.6292  EHBOND  =         0.0000  RESTRAINT  =         0.0000
 EKCMT  =        60.9230  VIRIAL  =       685.3052  VOLUME     =      1304.1032
                                                    Density    =         0.0057
 DV/DL  =        10.3824
 ------------------------------------------------------------------------------

      A V E R A G E S   O V E R  500000 S T E P S

 NSTEP =   500000   TIME(PS) =    1200.000  TEMP(K) =   300.24  PRESS =    -8.7
 Etot   =    -53794.6527  EKtot   =     12439.8163  EPtot      =    -66234.4690
 BOND   =         0.9708  ANGLE   =         5.1521  DIHED      =         5.2807
 1-4 NB =         0.4441  1-4 EEL =         3.3181  VDWAALS    =      9903.3792
 EELEC  =    -76153.0139  EHBOND  =         0.0000  RESTRAINT  =         0.0000
 EKCMT  =      6240.0926  VIRIAL  =      6281.9541  VOLUME     =    211809.8133
                                                    Density    =         0.9817
 DV/DL  =        52.2338
 ------------------------------------------------------------------------------

      R M S  F L U C T U A T I O N S

 NSTEP =   500000   TIME(PS) =    1200.000  TEMP(K) =     2.06  PRESS =   147.6
 Etot   =       174.4315  EKtot   =        85.2234  EPtot      =       150.2913
 BOND   =         0.7987  ANGLE   =         1.2051  DIHED      =         0.0902
 1-4 NB =         0.2599  1-4 EEL =         0.0543  VDWAALS    =       128.4525
 EELEC  =       229.6292  EHBOND  =         0.0000  RESTRAINT  =         0.0000
 EKCMT  =        60.9230  VIRIAL  =       685.3052  VOLUME     =      1304.1032
                                                    Density    =         0.0057
 DV/DL  =        10.3824
 ------------------------------------------------------------------------------

      DV/DL, AVERAGES OVER  500000 STEPS

 NSTEP =   500000   TIME(PS) =    1200.000  TEMP(K) =     2.06  PRESS =     0.0
 Etot   =         0.0000  EKtot   =         0.0000  EPtot      =        52.2338
 BOND   =         0.0000  ANGLE   =         0.0000  DIHED      =         0.0000
 1-4 NB =         0.0000  1-4 EEL =       -10.4975  VDWAALS    =         0.0000
 EELEC  =        62.7314  EHBOND  =         0.0000  RESTRAINT  =         0.0000
 EKCMT  =         0.0000  VIRIAL  =         0.0000  VOLUME     =         0.0000
                                                    Density    =         0.0000
 DV/DL  =        52.2338
 ------------------------------------------------------------------------------
