-------------------------------------------------------
          Amber 20 PMEMD                              2020
          -------------------------------------------------------

  [-O]verwriting output

File Assignments:

 Here is the input file:

 &cntrl
   nstlim=1000000, nscm=1000,
   ntx=1, irest=0, ntpr=1000,
   tempi=300.0, temp0=300.0, ntt=3, gamma_ln=2.0,
   ntb=1, igb=0, cut=10.0,
   dt=0.001, ig=-1,
   ntc=1, ntf=1,
   iwrap=0,
   ntwr=1000, ntwx=50000, ntave=1000,
   ioutfm=1, ntwv=-1,
   ifsc = 0, icfe=1,
   clambda=0.68392,
   timask1=':1',
   timask2=':2', crgmask = ':2',
/

Note: ig = -1. Setting random seed to   864917 based on wallclock time in
      microseconds.

--------------------------------------------------------------------------------
   1.  RESOURCE   USE:
--------------------------------------------------------------------------------

 getting box info from netcdf restart file
 NATOM  =      14 NTYPES =       6 NBONH =       6 MBONA  =       6
 NTHETH =      12 MTHETA =       6 NPHIH =      24 MPHIA  =       2
 NHPARM =       0 NPARM  =       0 NNB   =      44 NRES   =       2
 NBONA  =       6 NTHETA =       6 NPHIA =       2 NUMBND =       3
 NUMANG =       4 NPTRA  =       3 NATYP =       6 NPHB   =       1
 IFBOX  =       2 NMXRS  =       7 IFCAP =       0 NEXTRA =       0
 NCOPY  =       0

     BOX TYPE: TRUNCATED OCTAHEDRON

--------------------------------------------------------------------------------
   2.  CONTROL  DATA  FOR  THE  RUN
--------------------------------------------------------------------------------

default_name

General flags:
     imin    =       0, nmropt  =       0

Nature and format of input:
     ntx     =       1, irest   =       0, ntrx    =       1

Nature and format of output:
     ntxo    =       2, ntpr    =    1000, ntrx    =       1, ntwr    =    1000
     iwrap   =       0, ntwx    =   50000, ntwv    =      -1, ntwe    =       0
     ioutfm  =       1, ntwprt  =       0, idecomp =       0, rbornstat=      0

Potential function:
     ntf     =       1, ntb     =       1, igb     =       0, nsnb    =      25
     ipol    =       0, gbsa    =       0, iesp    =       0
     dielc   =   1.00000, cut     =  10.00000, intdiel =   1.00000

Frozen or restrained atoms:
     ibelly  =       0, ntr     =       0

Molecular dynamics:
     nstlim  =   1000000, nscm    =      1000, nrespa  =         1
     t       =   0.00000, dt      =   0.00100, vlimit  =  -1.00000

Langevin dynamics temperature regulation:
     ig      =  864917
     temp0   = 300.00000, tempi   = 300.00000, gamma_ln=   2.00000

Free energy options:
     icfe    =       1, ifsc    =       0, klambda =       1
     clambda =  0.6839, scalpha =  0.5000, scbeta  = 12.0000
     sceeorder =       2
     dynlmb =  0.0000 logdvdl =       0

Ewald parameters:
     verbose =       0, ew_type =       0, nbflag  =       1, use_pme =       1
     vdwmeth =       1, eedmeth =       1, netfrc  =       1
     Box X =   66.953   Box Y =   66.953   Box Z =   66.953
     Alpha =  109.471   Beta  =  109.471   Gamma =  109.471
     NFFT1 =   64       NFFT2 =   64       NFFT3 =   64
     Cutoff=   10.000   Tol   =0.100E-04
     Ewald Coefficient =  0.27511
     Interpolation order =    4
     TI Mask 1 :1; matches      7 atoms
     TI Mask 2 :2; matches      7 atoms
     TI region 1:       7 atoms
     TI region 2:       7 atoms
Removing charge of      -0.8188 from atom       8
Removing charge of      -0.8188 from atom       9
Removing charge of       0.8054 from atom      10
Removing charge of      -0.1021 from atom      11
Removing charge of      -0.0219 from atom      12
Removing charge of      -0.0219 from atom      13
Removing charge of      -0.0219 from atom      14
Total charge of  -0.99999900 removed from       7 atoms
     Checking for mismatched coordinates.

--------------------------------------------------------------------------------
   3.  ATOMIC COORDINATES AND VELOCITIES
--------------------------------------------------------------------------------

default_name
 begin time read from input coords =     0.000 ps

 Number of triangulated 3-point waters found:        0

     Sum of charges for TI region  1 =  -0.99999900
     Skip neutralizing charges...

     Sum of charges for TI region  2 =   0.00000000
     Skip neutralizing charges...

--------------------------------------------------------------------------------
   4.  RESULTS
 NSTEP =        0   TIME(PS) =       0.000  TEMP(K) =   239.33  PRESS =     0.0
 Etot   =        14.1600  EKtot   =         4.9938  EPtot      =         9.1661
 BOND   =         0.0186  ANGLE   =         2.7919  DIHED      =         5.2190
 1-4 NB =         0.3034  1-4 EEL =         3.3019  VDWAALS    =        -0.0001
 EELEC  =        -2.4686  EHBOND  =         0.0000  RESTRAINT  =         0.0000
 DV/DL  =        -2.6363
 ------------------------------------------------------------------------------

      A V E R A G E S   O V E R    1000 S T E P S

 NSTEP =     1000   TIME(PS) =       1.000  TEMP(K) =   289.17  PRESS =     0.0
 Etot   =        19.5204  EKtot   =         6.0338  EPtot      =        13.4866
 BOND   =         2.2521  ANGLE   =         4.7649  DIHED      =         5.2741
 1-4 NB =         0.3592  1-4 EEL =         3.3044  VDWAALS    =        -0.0001
 EELEC  =        -2.4680  EHBOND  =         0.0000  RESTRAINT  =         0.0000
 DV/DL  =        -2.6466
 ------------------------------------------------------------------------------

      R M S  F L U C T U A T I O N S

 NSTEP =     1000   TIME(PS) =       1.000  TEMP(K) =   101.34  PRESS =     0.0
 Etot   =         2.8440  EKtot   =         2.1145  EPtot      =         1.6627
 BOND   =         1.4202  ANGLE   =         0.8222  DIHED      =         0.0771
 1-4 NB =         0.1643  1-4 EEL =         0.0445  VDWAALS    =         0.0000
 EELEC  =         0.0008  EHBOND  =         0.0000  RESTRAINT  =         0.0000
 DV/DL  =         0.1549
 ------------------------------------------------------------------------------

      A V E R A G E S   O V E R    1000 S T E P S

 NSTEP =     1000   TIME(PS) =       1.000  TEMP(K) =   289.03  PRESS =     0.0
 Etot   =        19.5173  EKtot   =         6.0307  EPtot      =        13.4866
 BOND   =         2.2521  ANGLE   =         4.7649  DIHED      =         5.2741
 1-4 NB =         0.3592  1-4 EEL =         3.3044  VDWAALS    =        -0.0001
 EELEC  =        -2.4680  EHBOND  =         0.0000  RESTRAINT  =         0.0000
 DV/DL  =        -2.6466
 ------------------------------------------------------------------------------

      R M S  F L U C T U A T I O N S

 NSTEP =     1000   TIME(PS) =       1.000  TEMP(K) =   101.26  PRESS =     0.0
 Etot   =         2.8441  EKtot   =         2.1129  EPtot      =         1.6627
 BOND   =         1.4202  ANGLE   =         0.8222  DIHED      =         0.0771
 1-4 NB =         0.1643  1-4 EEL =         0.0445  VDWAALS    =         0.0000
 EELEC  =         0.0008  EHBOND  =         0.0000  RESTRAINT  =         0.0000
 DV/DL  =         0.1549
 ------------------------------------------------------------------------------

      DV/DL, AVERAGES OVER    1000 STEPS

 NSTEP =     1000   TIME(PS) =       1.000  TEMP(K) =   101.26  PRESS =     0.0
 Etot   =         0.0000  EKtot   =         0.0000  EPtot      =        -2.6466
 BOND   =        -0.0008  ANGLE   =         0.0001  DIHED      =         0.0000
 1-4 NB =         0.0001  1-4 EEL =       -10.4542  VDWAALS    =         0.0000
 EELEC  =         7.8082  EHBOND  =         0.0000  RESTRAINT  =         0.0000
 DV/DL  =        -2.6466
 ------------------------------------------------------------------------------

      A V E R A G E S   O V E R    1000 S T E P S

 NSTEP =     2000   TIME(PS) =       2.000  TEMP(K) =   311.81  PRESS =     0.0
 Etot   =        21.0641  EKtot   =         6.5061  EPtot      =        14.5580
 BOND   =         2.8580  ANGLE   =         5.2032  DIHED      =         5.2736
 1-4 NB =         0.3842  1-4 EEL =         3.3069  VDWAALS    =        -0.0001
 EELEC  =        -2.4679  EHBOND  =         0.0000  RESTRAINT  =         0.0000
 DV/DL  =        -2.6555
 ------------------------------------------------------------------------------

      R M S  F L U C T U A T I O N S

 NSTEP =     2000   TIME(PS) =       2.000  TEMP(K) =    91.96  PRESS =     0.0
 Etot   =         2.0423  EKtot   =         1.9188  EPtot      =         1.6771
 BOND   =         1.3613  ANGLE   =         1.0336  DIHED      =         0.0801
 1-4 NB =         0.2203  1-4 EEL =         0.0495  VDWAALS    =         0.0000
 EELEC  =         0.0006  EHBOND  =         0.0000  RESTRAINT  =         0.0000
 DV/DL  =         0.1786
 ------------------------------------------------------------------------------

      A V E R A G E S   O V E R    1000 S T E P S

 NSTEP =     2000   TIME(PS) =       2.000  TEMP(K) =   311.79  PRESS =     0.0
 Etot   =        21.0637  EKtot   =         6.5057  EPtot      =        14.5580
 BOND   =         2.8580  ANGLE   =         5.2032  DIHED      =         5.2736
 1-4 NB =         0.3842  1-4 EEL =         3.3069  VDWAALS    =        -0.0001
 EELEC  =        -2.4679  EHBOND  =         0.0000  RESTRAINT  =         0.0000
 DV/DL  =        -2.6555
 ------------------------------------------------------------------------------

      R M S  F L U C T U A T I O N S

 NSTEP =     2000   TIME(PS) =       2.000  TEMP(K) =    92.20  PRESS =     0.0
 Etot   =         2.0452  EKtot   =         1.9237  EPtot      =         1.6771
 BOND   =         1.3613  ANGLE   =         1.0336  DIHED      =         0.0801
 1-4 NB =         0.2203  1-4 EEL =         0.0495  VDWAALS    =         0.0000
 EELEC  =         0.0006  EHBOND  =         0.0000  RESTRAINT  =         0.0000
 DV/DL  =         0.1786
 ------------------------------------------------------------------------------

      DV/DL, AVERAGES OVER    1000 STEPS

 NSTEP =     2000   TIME(PS) =       2.000  TEMP(K) =    92.20  PRESS =     0.0
 Etot   =         0.0000  EKtot   =         0.0000  EPtot      =        -2.6555
 BOND   =        -0.0013  ANGLE   =         0.0002  DIHED      =         0.0000
 1-4 NB =         0.0000  1-4 EEL =       -10.4624  VDWAALS    =         0.0000
 EELEC  =         7.8079  EHBOND  =         0.0000  RESTRAINT  =         0.0000
 DV/DL  =        -2.6555
 ------------------------------------------------------------------------------

      A V E R A G E S   O V E R    1000 S T E P S

 NSTEP =  1000000   TIME(PS) =    1000.000  TEMP(K) =   295.63  PRESS =     0.0
 Etot   =        19.8629  EKtot   =         6.1685  EPtot      =        13.6944
 BOND   =         2.6811  ANGLE   =         4.5359  DIHED      =         5.2717
 1-4 NB =         0.3703  1-4 EEL =         3.3037  VDWAALS    =        -0.0001
 EELEC  =        -2.4682  EHBOND  =         0.0000  RESTRAINT  =         0.0000
 DV/DL  =        -2.6432
 ------------------------------------------------------------------------------

      R M S  F L U C T U A T I O N S

 NSTEP =  1000000   TIME(PS) =    1000.000  TEMP(K) =   108.16  PRESS =     0.0
 Etot   =         2.7228  EKtot   =         2.2568  EPtot      =         1.3429
 BOND   =         1.0491  ANGLE   =         0.8624  DIHED      =         0.0587
 1-4 NB =         0.2431  1-4 EEL =         0.0683  VDWAALS    =         0.0000
 EELEC  =         0.0010  EHBOND  =         0.0000  RESTRAINT  =         0.0000
 DV/DL  =         0.2320
 ------------------------------------------------------------------------------

      A V E R A G E S   O V E R    1000 S T E P S

 NSTEP =  1000000   TIME(PS) =    1000.000  TEMP(K) =   295.62  PRESS =     0.0
 Etot   =        19.8628  EKtot   =         6.1684  EPtot      =        13.6944
 BOND   =         2.6811  ANGLE   =         4.5359  DIHED      =         5.2717
 1-4 NB =         0.3703  1-4 EEL =         3.3037  VDWAALS    =        -0.0001
 EELEC  =        -2.4682  EHBOND  =         0.0000  RESTRAINT  =         0.0000
 DV/DL  =        -2.6432
 ------------------------------------------------------------------------------

      R M S  F L U C T U A T I O N S

 NSTEP =  1000000   TIME(PS) =    1000.000  TEMP(K) =   108.18  PRESS =     0.0
 Etot   =         2.7273  EKtot   =         2.2572  EPtot      =         1.3429
 BOND   =         1.0491  ANGLE   =         0.8624  DIHED      =         0.0587
 1-4 NB =         0.2431  1-4 EEL =         0.0683  VDWAALS    =         0.0000
 EELEC  =         0.0010  EHBOND  =         0.0000  RESTRAINT  =         0.0000
 DV/DL  =         0.2320
 ------------------------------------------------------------------------------

      DV/DL, AVERAGES OVER    1000 STEPS

 NSTEP =  1000000   TIME(PS) =    1000.000  TEMP(K) =   108.18  PRESS =     0.0
 Etot   =         0.0000  EKtot   =         0.0000  EPtot      =        -2.6432
 BOND   =         0.0009  ANGLE   =        -0.0007  DIHED      =        -0.0000
 1-4 NB =        -0.0000  1-4 EEL =       -10.4522  VDWAALS    =         0.0000
 EELEC  =         7.8088  EHBOND  =         0.0000  RESTRAINT  =         0.0000
 DV/DL  =        -2.6432
 ------------------------------------------------------------------------------

      A V E R A G E S   O V E R 1000000 S T E P S

 NSTEP =  1000000   TIME(PS) =    1000.000  TEMP(K) =   332.64  PRESS =     0.0
 Etot   =        21.1118  EKtot   =         6.9406  EPtot      =        14.1711
 BOND   =         2.4116  ANGLE   =         5.2561  DIHED      =         5.2788
 1-4 NB =         0.3870  1-4 EEL =         3.3055  VDWAALS    =        -0.0001
 EELEC  =        -2.4678  EHBOND  =         0.0000  RESTRAINT  =         0.0000
 DV/DL  =        -2.6500
 ------------------------------------------------------------------------------

      R M S  F L U C T U A T I O N S

 NSTEP =  1000000   TIME(PS) =    1000.000  TEMP(K) =   103.83  PRESS =     0.0
 Etot   =         2.8667  EKtot   =         2.1665  EPtot      =         1.8962
 BOND   =         1.3911  ANGLE   =         1.2621  DIHED      =         0.0876
 1-4 NB =         0.2237  1-4 EEL =         0.0542  VDWAALS    =         0.0000
 EELEC  =         0.0009  EHBOND  =         0.0000  RESTRAINT  =         0.0000
 DV/DL  =         0.1888
 ------------------------------------------------------------------------------

      A V E R A G E S   O V E R 1000000 S T E P S

 NSTEP =  1000000   TIME(PS) =    1000.000  TEMP(K) =   332.63  PRESS =     0.0
 Etot   =        21.1117  EKtot   =         6.9405  EPtot      =        14.1711
 BOND   =         2.4116  ANGLE   =         5.2561  DIHED      =         5.2788
 1-4 NB =         0.3870  1-4 EEL =         3.3055  VDWAALS    =        -0.0001
 EELEC  =        -2.4678  EHBOND  =         0.0000  RESTRAINT  =         0.0000
 DV/DL  =        -2.6500
 ------------------------------------------------------------------------------

      R M S  F L U C T U A T I O N S

 NSTEP =  1000000   TIME(PS) =    1000.000  TEMP(K) =   103.83  PRESS =     0.0
 Etot   =         2.8667  EKtot   =         2.1665  EPtot      =         1.8962
 BOND   =         1.3911  ANGLE   =         1.2621  DIHED      =         0.0876
 1-4 NB =         0.2237  1-4 EEL =         0.0542  VDWAALS    =         0.0000
 EELEC  =         0.0009  EHBOND  =         0.0000  RESTRAINT  =         0.0000
 DV/DL  =         0.1888
 ------------------------------------------------------------------------------

      DV/DL, AVERAGES OVER 1000000 STEPS

 NSTEP =  1000000   TIME(PS) =    1000.000  TEMP(K) =   103.83  PRESS =     0.0
 Etot   =         0.0000  EKtot   =         0.0000  EPtot      =        -2.6500
 BOND   =         0.0001  ANGLE   =         0.0001  DIHED      =         0.0000
 1-4 NB =        -0.0000  1-4 EEL =       -10.4578  VDWAALS    =         0.0000
 EELEC  =         7.8076  EHBOND  =         0.0000  RESTRAINT  =         0.0000
 DV/DL  =        -2.6500
 ------------------------------------------------------------------------------
