-------------------------------------------------------
          Amber 20 PMEMD                              2020
          -------------------------------------------------------

  [-O]verwriting output

File Assignments:

 Here is the input file:

 &cntrl
   nstlim=4000000, nscm=1000,
   ntx=5, irest=1, ntpr=1000,
   tempi=300.0, temp0=300.0, ntt=3, gamma_ln=2.0,
   ntb=1, igb=0, cut=10.0,
   dt=0.001, ig=-1,
   ntc=1, ntf=1,
   iwrap=0,
   ntwr=1000, ntwx=50000, ntave=1000,
   ioutfm=1, ntwv=-1,
   ifsc = 0, icfe=1,
   clambda=0.68392,
   timask1=':1',
   timask2=':2', crgmask = ':2',
/

Note: ig = -1. Setting random seed to   787938 based on wallclock time in
      microseconds.

--------------------------------------------------------------------------------
   1.  RESOURCE   USE:
--------------------------------------------------------------------------------

 getting box info from netcdf restart file
 NATOM  =      14 NTYPES =       6 NBONH =       6 MBONA  =       6
 NTHETH =      12 MTHETA =       6 NPHIH =      24 MPHIA  =       2
 NHPARM =       0 NPARM  =       0 NNB   =      44 NRES   =       2
 NBONA  =       6 NTHETA =       6 NPHIA =       2 NUMBND =       3
 NUMANG =       4 NPTRA  =       3 NATYP =       6 NPHB   =       1
 IFBOX  =       2 NMXRS  =       7 IFCAP =       0 NEXTRA =       0
 NCOPY  =       0

     BOX TYPE: TRUNCATED OCTAHEDRON

--------------------------------------------------------------------------------
   2.  CONTROL  DATA  FOR  THE  RUN
--------------------------------------------------------------------------------

default_name

General flags:
     imin    =       0, nmropt  =       0

Nature and format of input:
     ntx     =       5, irest   =       1, ntrx    =       1

Nature and format of output:
     ntxo    =       2, ntpr    =    1000, ntrx    =       1, ntwr    =    1000
     iwrap   =       0, ntwx    =   50000, ntwv    =      -1, ntwe    =       0
     ioutfm  =       1, ntwprt  =       0, idecomp =       0, rbornstat=      0

Potential function:
     ntf     =       1, ntb     =       1, igb     =       0, nsnb    =      25
     ipol    =       0, gbsa    =       0, iesp    =       0
     dielc   =   1.00000, cut     =  10.00000, intdiel =   1.00000

Frozen or restrained atoms:
     ibelly  =       0, ntr     =       0

Molecular dynamics:
     nstlim  =   4000000, nscm    =      1000, nrespa  =         1
     t       =   0.00000, dt      =   0.00100, vlimit  =  -1.00000

Langevin dynamics temperature regulation:
     ig      =  787938
     temp0   = 300.00000, tempi   = 300.00000, gamma_ln=   2.00000

Free energy options:
     icfe    =       1, ifsc    =       0, klambda =       1
     clambda =  0.6839, scalpha =  0.5000, scbeta  = 12.0000
     sceeorder =       2
     dynlmb =  0.0000 logdvdl =       0

Ewald parameters:
     verbose =       0, ew_type =       0, nbflag  =       1, use_pme =       1
     vdwmeth =       1, eedmeth =       1, netfrc  =       1
     Box X =   66.953   Box Y =   66.953   Box Z =   66.953
     Alpha =  109.471   Beta  =  109.471   Gamma =  109.471
     NFFT1 =   64       NFFT2 =   64       NFFT3 =   64
     Cutoff=   10.000   Tol   =0.100E-04
     Ewald Coefficient =  0.27511
     Interpolation order =    4
     TI Mask 1 :1; matches      7 atoms
     TI Mask 2 :2; matches      7 atoms
     TI region 1:       7 atoms
     TI region 2:       7 atoms
Removing charge of      -0.8188 from atom       8
Removing charge of      -0.8188 from atom       9
Removing charge of       0.8054 from atom      10
Removing charge of      -0.1021 from atom      11
Removing charge of      -0.0219 from atom      12
Removing charge of      -0.0219 from atom      13
Removing charge of      -0.0219 from atom      14
Total charge of  -0.99999900 removed from       7 atoms
     Checking for mismatched coordinates.
     WARNING: Local coordinate       1 differs from partner coordinate       8 !
     Deviation is small, changing partner coordinate.
     WARNING: Local coordinate       1 differs from partner coordinate       8 !
     Deviation is small, changing partner coordinate.
     WARNING: Local coordinate       1 differs from partner coordinate       8 !
     Deviation is small, changing partner coordinate.
     WARNING: Local coordinate       2 differs from partner coordinate       9 !
     Deviation is small, changing partner coordinate.
     WARNING: Local coordinate       2 differs from partner coordinate       9 !
     Deviation is small, changing partner coordinate.
     WARNING: Local coordinate       2 differs from partner coordinate       9 !
     Deviation is small, changing partner coordinate.
     WARNING: Local coordinate       3 differs from partner coordinate      10 !
     Deviation is small, changing partner coordinate.
     WARNING: Local coordinate       3 differs from partner coordinate      10 !
     Deviation is small, changing partner coordinate.
     WARNING: Local coordinate       3 differs from partner coordinate      10 !
     Deviation is small, changing partner coordinate.
     ... making more adjustments ...
     A total of      21 small coordinate adjustments were made, check results carefully.

--------------------------------------------------------------------------------
   3.  ATOMIC COORDINATES AND VELOCITIES
--------------------------------------------------------------------------------

default_name
 begin time read from input coords =  1000.000 ps

 Number of triangulated 3-point waters found:        0

     Sum of charges for TI region  1 =  -0.99999900
     Skip neutralizing charges...

     Sum of charges for TI region  2 =   0.00000000
     Skip neutralizing charges...

--------------------------------------------------------------------------------
   4.  RESULTS
 NSTEP =     1000   TIME(PS) =    1001.000  TEMP(K) =   552.80  PRESS =     0.0
 Etot   =        23.7304  EKtot   =        11.5344  EPtot      =        12.1960
 BOND   =         1.5841  ANGLE   =         4.3248  DIHED      =         5.2160
 1-4 NB =         0.2361  1-4 EEL =         3.3035  VDWAALS    =        -0.0001
 EELEC  =        -2.4684  EHBOND  =         0.0000  RESTRAINT  =         0.0000
 DV/DL  =        -2.6581
 ------------------------------------------------------------------------------

      A V E R A G E S   O V E R    1000 S T E P S

 NSTEP =     1000   TIME(PS) =    1001.000  TEMP(K) =   366.14  PRESS =     0.0
 Etot   =        22.5534  EKtot   =         7.6397  EPtot      =        14.9138
 BOND   =         3.0626  ANGLE   =         5.3624  DIHED      =         5.2586
 1-4 NB =         0.3937  1-4 EEL =         3.3047  VDWAALS    =        -0.0001
 EELEC  =        -2.4681  EHBOND  =         0.0000  RESTRAINT  =         0.0000
 DV/DL  =        -2.6491
 ------------------------------------------------------------------------------

      R M S  F L U C T U A T I O N S

 NSTEP =     1000   TIME(PS) =    1001.000  TEMP(K) =    81.03  PRESS =     0.0
 Etot   =         1.7020  EKtot   =         1.6907  EPtot      =         1.6963
 BOND   =         1.4046  ANGLE   =         1.0489  DIHED      =         0.0569
 1-4 NB =         0.1971  1-4 EEL =         0.0426  VDWAALS    =         0.0000
 EELEC  =         0.0008  EHBOND  =         0.0000  RESTRAINT  =         0.0000
 DV/DL  =         0.1637
 ------------------------------------------------------------------------------

      A V E R A G E S   O V E R    1000 S T E P S

 NSTEP =     1000   TIME(PS) =    1001.000  TEMP(K) =   365.95  PRESS =     0.0
 Etot   =        22.5495  EKtot   =         7.6358  EPtot      =        14.9138
 BOND   =         3.0626  ANGLE   =         5.3624  DIHED      =         5.2586
 1-4 NB =         0.3937  1-4 EEL =         3.3047  VDWAALS    =        -0.0001
 EELEC  =        -2.4681  EHBOND  =         0.0000  RESTRAINT  =         0.0000
 DV/DL  =        -2.6491
 ------------------------------------------------------------------------------

      R M S  F L U C T U A T I O N S

 NSTEP =     1000   TIME(PS) =    1001.000  TEMP(K) =    80.84  PRESS =     0.0
 Etot   =         1.7016  EKtot   =         1.6868  EPtot      =         1.6963
 BOND   =         1.4046  ANGLE   =         1.0489  DIHED      =         0.0569
 1-4 NB =         0.1971  1-4 EEL =         0.0426  VDWAALS    =         0.0000
 EELEC  =         0.0008  EHBOND  =         0.0000  RESTRAINT  =         0.0000
 DV/DL  =         0.1637
 ------------------------------------------------------------------------------

      DV/DL, AVERAGES OVER    1000 STEPS

 NSTEP =     1000   TIME(PS) =    1001.000  TEMP(K) =    80.84  PRESS =     0.0
 Etot   =         0.0000  EKtot   =         0.0000  EPtot      =        -2.6491
 BOND   =        -0.0003  ANGLE   =        -0.0021  DIHED      =        -0.0000
 1-4 NB =         0.0000  1-4 EEL =       -10.4554  VDWAALS    =         0.0000
 EELEC  =         7.8086  EHBOND  =         0.0000  RESTRAINT  =         0.0000
 DV/DL  =        -2.6491
 ------------------------------------------------------------------------------

      A V E R A G E S   O V E R    1000 S T E P S

 NSTEP =     2000   TIME(PS) =    1002.000  TEMP(K) =   370.28  PRESS =     0.0
 Etot   =        22.4445  EKtot   =         7.7261  EPtot      =        14.7185
 BOND   =         2.1286  ANGLE   =         6.0947  DIHED      =         5.2639
 1-4 NB =         0.3952  1-4 EEL =         3.3041  VDWAALS    =        -0.0001
 EELEC  =        -2.4679  EHBOND  =         0.0000  RESTRAINT  =         0.0000
 DV/DL  =        -2.6422
 ------------------------------------------------------------------------------

      R M S  F L U C T U A T I O N S

 NSTEP =     2000   TIME(PS) =    1002.000  TEMP(K) =    71.31  PRESS =     0.0
 Etot   =         1.1928  EKtot   =         1.4879  EPtot      =         1.3497
 BOND   =         0.9442  ANGLE   =         1.0807  DIHED      =         0.0548
 1-4 NB =         0.2010  1-4 EEL =         0.0427  VDWAALS    =         0.0000
 EELEC  =         0.0010  EHBOND  =         0.0000  RESTRAINT  =         0.0000
 DV/DL  =         0.1523
 ------------------------------------------------------------------------------

      A V E R A G E S   O V E R    1000 S T E P S

 NSTEP =     2000   TIME(PS) =    1002.000  TEMP(K) =   370.07  PRESS =     0.0
 Etot   =        22.4401  EKtot   =         7.7216  EPtot      =        14.7185
 BOND   =         2.1286  ANGLE   =         6.0947  DIHED      =         5.2639
 1-4 NB =         0.3952  1-4 EEL =         3.3041  VDWAALS    =        -0.0001
 EELEC  =        -2.4679  EHBOND  =         0.0000  RESTRAINT  =         0.0000
 DV/DL  =        -2.6422
 ------------------------------------------------------------------------------

      R M S  F L U C T U A T I O N S

 NSTEP =     2000   TIME(PS) =    1002.000  TEMP(K) =    71.63  PRESS =     0.0
 Etot   =         1.1966  EKtot   =         1.4946  EPtot      =         1.3497
 BOND   =         0.9442  ANGLE   =         1.0807  DIHED      =         0.0548
 1-4 NB =         0.2010  1-4 EEL =         0.0427  VDWAALS    =         0.0000
 EELEC  =         0.0010  EHBOND  =         0.0000  RESTRAINT  =         0.0000
 DV/DL  =         0.1523
 ------------------------------------------------------------------------------

      DV/DL, AVERAGES OVER    1000 STEPS

 NSTEP =     2000   TIME(PS) =    1002.000  TEMP(K) =    71.63  PRESS =     0.0
 Etot   =         0.0000  EKtot   =         0.0000  EPtot      =        -2.6422
 BOND   =         0.0020  ANGLE   =         0.0013  DIHED      =        -0.0000
 1-4 NB =        -0.0000  1-4 EEL =       -10.4533  VDWAALS    =         0.0000
 EELEC  =         7.8078  EHBOND  =         0.0000  RESTRAINT  =         0.0000
 DV/DL  =        -2.6422
 ------------------------------------------------------------------------------

      R M S  F L U C T U A T I O N S

 NSTEP =   288000   TIME(PS) =    1288.000  TEMP(K) =   103.94  PRESS =     0.0
 Etot   =         2.9553  EKtot   =         2.1687  EPtot      =         1.9947
 BOND   =         1.2932  ANGLE   =         1.3583  DIHED      =         0.0664
 1-4 NB =         0.1889  1-4 EEL =         0.0442  VDWAALS    =         0.0000
 EELEC  =         0.0012  EHBOND  =         0.0000  RESTRAINT  =         0.0000
 DV/DL  =         0.1587
 ------------------------------------------------------------------------------

      DV/DL, AVERAGES OVER    1000 STEPS

 NSTEP =   288000   TIME(PS) =    1288.000  TEMP(K) =   103.94  PRESS =     0.0
 Etot   =         0.0000  EKtot   =         0.0000  EPtot      =        -2.6483
 BOND   =         0.0016  ANGLE   =        -0.0005  DIHED      =         0.0000
 1-4 NB =         0.0003  1-4 EEL =       -10.4565  VDWAALS    =         0.0000
 EELEC  =         7.8069  EHBOND  =         0.0000  RESTRAINT  =         0.0000
 DV/DL  =        -2.6483
 ------------------------------------------------------------------------------

      A V E R A G E S   O V E R    1000 S T E P S

 NSTEP =   289000   TIME(PS) =    1289.000  TEMP(K) =   265.21  PRESS =     0.0
 Etot   =        18.8591  EKtot   =         5.5337  EPtot      =        13.3254
 BOND   =         2.0143  ANGLE   =         4.8456  DIHED      =         5.2651
 1-4 NB =         0.3634  1-4 EEL =         3.3046  VDWAALS    =        -0.0001
 EELEC  =        -2.4675  EHBOND  =         0.0000  RESTRAINT  =         0.0000
 DV/DL  =        -2.6535
 ------------------------------------------------------------------------------

      R M S  F L U C T U A T I O N S

 NSTEP =   289000   TIME(PS) =    1289.000  TEMP(K) =    57.49  PRESS =     0.0
 Etot   =         1.0813  EKtot   =         1.1995  EPtot      =         1.2182
 BOND   =         0.9313  ANGLE   =         0.9211  DIHED      =         0.0621
 1-4 NB =         0.1394  1-4 EEL =         0.0354  VDWAALS    =         0.0000
 EELEC  =         0.0007  EHBOND  =         0.0000  RESTRAINT  =         0.0000
 DV/DL  =         0.1390
 ------------------------------------------------------------------------------

      A V E R A G E S   O V E R    1000 S T E P S

 NSTEP =   289000   TIME(PS) =    1289.000  TEMP(K) =   265.32  PRESS =     0.0
 Etot   =        18.8614  EKtot   =         5.5360  EPtot      =        13.3254
 BOND   =         2.0143  ANGLE   =         4.8456  DIHED      =         5.2651
 1-4 NB =         0.3634  1-4 EEL =         3.3046  VDWAALS    =        -0.0001
 EELEC  =        -2.4675  EHBOND  =         0.0000  RESTRAINT  =         0.0000
 DV/DL  =        -2.6535
 ------------------------------------------------------------------------------

      R M S  F L U C T U A T I O N S

 NSTEP =   289000   TIME(PS) =    1289.000  TEMP(K) =    57.72  PRESS =     0.0
 Etot   =         1.0873  EKtot   =         1.2043  EPtot      =         1.2182
 BOND   =         0.9313  ANGLE   =         0.9211  DIHED      =         0.0621
 1-4 NB =         0.1394  1-4 EEL =         0.0354  VDWAALS    =         0.0000
 EELEC  =         0.0007  EHBOND  =         0.0000  RESTRAINT  =         0.0000
 DV/DL  =         0.1390
 ------------------------------------------------------------------------------

      DV/DL, AVERAGES OVER    1000 STEPS

 NSTEP =   289000   TIME(PS) =    1289.000  TEMP(K) =    57.72  PRESS =     0.0
 Etot   =         0.0000  EKtot   =         0.0000  EPtot      =        -2.6535
 BOND   =        -0.0037  ANGLE   =        -0.0012  DIHED      =         0.0000
 1-4 NB =        -0.0002  1-4 EEL =       -10.4550  VDWAALS    =         0.0000
 EELEC  =         7.8066  EHBOND  =         0.0000  RESTRAINT  =         0.0000
 DV/DL  =        -2.6535
 ------------------------------------------------------------------------------

      A V E R A G E S   O V E R    1000 S T E P S

 NSTEP =   290000   TIME(PS) =    1290.000  TEMP(K) =   327.25  PRESS =     0.0
 Etot   =        21.5339  EKtot   =         6.8282  EPtot      =        14.7057
 BOND   =         2.8520  ANGLE   =         5.3787  DIHED      =         5.2400
 1-4 NB =         0.3989  1-4 EEL =         3.3038  VDWAALS    =        -0.0001
 EELEC  =        -2.4676  EHBOND  =         0.0000  RESTRAINT  =         0.0000
 DV/DL  =        -2.6430
 ------------------------------------------------------------------------------

      R M S  F L U C T U A T I O N S

 NSTEP =   290000   TIME(PS) =    1290.000  TEMP(K) =    72.03  PRESS =     0.0
 Etot   =         1.6916  EKtot   =         1.5029  EPtot      =         1.7294
 BOND   =         1.4010  ANGLE   =         1.1182  DIHED      =         0.0373
 1-4 NB =         0.2182  1-4 EEL =         0.0485  VDWAALS    =         0.0000
 EELEC  =         0.0008  EHBOND  =         0.0000  RESTRAINT  =         0.0000
 DV/DL  =         0.1784
 ------------------------------------------------------------------------------

      A V E R A G E S   O V E R    1000 S T E P S

 NSTEP =   290000   TIME(PS) =    1290.000  TEMP(K) =   327.32  PRESS =     0.0
