-------------------------------------------------------
          Amber 20 PMEMD                              2020
          -------------------------------------------------------

  [-O]verwriting output

File Assignments:

 Here is the input file:

 &cntrl
   nstlim=1000000, nscm=1000,
   ntx=1, irest=0, ntpr=1000,
   tempi=300.0, temp0=300.0, ntt=3, gamma_ln=2.0,
   ntb=1, igb=0, cut=10.0,
   dt=0.001, ig=-1,
   ntc=1, ntf=1,
   iwrap=0,
   ntwr=1000, ntwx=50000, ntave=1000,
   ioutfm=1, ntwv=-1,
   ifsc = 0, icfe=1,
   clambda=0.20634,
   timask1=':1',
   timask2=':2', crgmask = ':2',
/

Note: ig = -1. Setting random seed to   864775 based on wallclock time in
      microseconds.

--------------------------------------------------------------------------------
   1.  RESOURCE   USE:
--------------------------------------------------------------------------------

 getting box info from netcdf restart file
 NATOM  =      14 NTYPES =       6 NBONH =       6 MBONA  =       6
 NTHETH =      12 MTHETA =       6 NPHIH =      24 MPHIA  =       2
 NHPARM =       0 NPARM  =       0 NNB   =      44 NRES   =       2
 NBONA  =       6 NTHETA =       6 NPHIA =       2 NUMBND =       3
 NUMANG =       4 NPTRA  =       3 NATYP =       6 NPHB   =       1
 IFBOX  =       2 NMXRS  =       7 IFCAP =       0 NEXTRA =       0
 NCOPY  =       0

     BOX TYPE: TRUNCATED OCTAHEDRON

--------------------------------------------------------------------------------
   2.  CONTROL  DATA  FOR  THE  RUN
--------------------------------------------------------------------------------

default_name

General flags:
     imin    =       0, nmropt  =       0

Nature and format of input:
     ntx     =       1, irest   =       0, ntrx    =       1

Nature and format of output:
     ntxo    =       2, ntpr    =    1000, ntrx    =       1, ntwr    =    1000
     iwrap   =       0, ntwx    =   50000, ntwv    =      -1, ntwe    =       0
     ioutfm  =       1, ntwprt  =       0, idecomp =       0, rbornstat=      0

Potential function:
     ntf     =       1, ntb     =       1, igb     =       0, nsnb    =      25
     ipol    =       0, gbsa    =       0, iesp    =       0
     dielc   =   1.00000, cut     =  10.00000, intdiel =   1.00000

Frozen or restrained atoms:
     ibelly  =       0, ntr     =       0

Molecular dynamics:
     nstlim  =   1000000, nscm    =      1000, nrespa  =         1
     t       =   0.00000, dt      =   0.00100, vlimit  =  -1.00000

Langevin dynamics temperature regulation:
     ig      =  864775
     temp0   = 300.00000, tempi   = 300.00000, gamma_ln=   2.00000

Free energy options:
     icfe    =       1, ifsc    =       0, klambda =       1
     clambda =  0.2063, scalpha =  0.5000, scbeta  = 12.0000
     sceeorder =       2
     dynlmb =  0.0000 logdvdl =       0

Ewald parameters:
     verbose =       0, ew_type =       0, nbflag  =       1, use_pme =       1
     vdwmeth =       1, eedmeth =       1, netfrc  =       1
     Box X =   66.953   Box Y =   66.953   Box Z =   66.953
     Alpha =  109.471   Beta  =  109.471   Gamma =  109.471
     NFFT1 =   64       NFFT2 =   64       NFFT3 =   64
     Cutoff=   10.000   Tol   =0.100E-04
     Ewald Coefficient =  0.27511
     Interpolation order =    4
     TI Mask 1 :1; matches      7 atoms
     TI Mask 2 :2; matches      7 atoms
     TI region 1:       7 atoms
     TI region 2:       7 atoms
Removing charge of      -0.8188 from atom       8
Removing charge of      -0.8188 from atom       9
Removing charge of       0.8054 from atom      10
Removing charge of      -0.1021 from atom      11
Removing charge of      -0.0219 from atom      12
Removing charge of      -0.0219 from atom      13
Removing charge of      -0.0219 from atom      14
Total charge of  -0.99999900 removed from       7 atoms
     Checking for mismatched coordinates.

--------------------------------------------------------------------------------
   3.  ATOMIC COORDINATES AND VELOCITIES
--------------------------------------------------------------------------------

default_name
 begin time read from input coords =     0.000 ps

 Number of triangulated 3-point waters found:        0

     Sum of charges for TI region  1 =  -0.99999900
     Skip neutralizing charges...

     Sum of charges for TI region  2 =   0.00000000
     Skip neutralizing charges...

--------------------------------------------------------------------------------
   4.  RESULTS
 NSTEP =        0   TIME(PS) =       0.000  TEMP(K) =   405.98  PRESS =     0.0
 Etot   =        18.8918  EKtot   =         8.4710  EPtot      =        10.4208
 BOND   =         0.0350  ANGLE   =         2.8074  DIHED      =         5.2190
 1-4 NB =         0.2835  1-4 EEL =         8.2736  VDWAALS    =        -0.0001
 EELEC  =        -6.1976  EHBOND  =         0.0000  RESTRAINT  =         0.0000
 DV/DL  =        -2.6157
 ------------------------------------------------------------------------------

      A V E R A G E S   O V E R    1000 S T E P S

 NSTEP =     1000   TIME(PS) =       1.000  TEMP(K) =   255.42  PRESS =     0.0
 Etot   =        19.3379  EKtot   =         5.3296  EPtot      =        14.0084
 BOND   =         1.8447  ANGLE   =         4.4938  DIHED      =         5.2368
 1-4 NB =         0.3495  1-4 EEL =         8.2807  VDWAALS    =        -0.0001
 EELEC  =        -6.1971  EHBOND  =         0.0000  RESTRAINT  =         0.0000
 DV/DL  =        -2.6206
 ------------------------------------------------------------------------------

      R M S  F L U C T U A T I O N S

 NSTEP =     1000   TIME(PS) =       1.000  TEMP(K) =    75.34  PRESS =     0.0
 Etot   =         1.5564  EKtot   =         1.5721  EPtot      =         1.0926
 BOND   =         0.8968  ANGLE   =         0.9401  DIHED      =         0.0364
 1-4 NB =         0.1401  1-4 EEL =         0.0959  VDWAALS    =         0.0000
 EELEC  =         0.0020  EHBOND  =         0.0000  RESTRAINT  =         0.0000
 DV/DL  =         0.1358
 ------------------------------------------------------------------------------

      A V E R A G E S   O V E R    1000 S T E P S

 NSTEP =     1000   TIME(PS) =       1.000  TEMP(K) =   255.65  PRESS =     0.0
 Etot   =        19.3427  EKtot   =         5.3343  EPtot      =        14.0084
 BOND   =         1.8447  ANGLE   =         4.4938  DIHED      =         5.2368
 1-4 NB =         0.3495  1-4 EEL =         8.2807  VDWAALS    =        -0.0001
 EELEC  =        -6.1971  EHBOND  =         0.0000  RESTRAINT  =         0.0000
 DV/DL  =        -2.6206
 ------------------------------------------------------------------------------

      R M S  F L U C T U A T I O N S

 NSTEP =     1000   TIME(PS) =       1.000  TEMP(K) =    75.58  PRESS =     0.0
 Etot   =         1.5612  EKtot   =         1.5771  EPtot      =         1.0926
 BOND   =         0.8968  ANGLE   =         0.9401  DIHED      =         0.0364
 1-4 NB =         0.1401  1-4 EEL =         0.0959  VDWAALS    =         0.0000
 EELEC  =         0.0020  EHBOND  =         0.0000  RESTRAINT  =         0.0000
 DV/DL  =         0.1358
 ------------------------------------------------------------------------------

      DV/DL, AVERAGES OVER    1000 STEPS

 NSTEP =     1000   TIME(PS) =       1.000  TEMP(K) =    75.58  PRESS =     0.0
 Etot   =         0.0000  EKtot   =         0.0000  EPtot      =        -2.6206
 BOND   =         0.0032  ANGLE   =         0.0014  DIHED      =         0.0000
 1-4 NB =         0.0001  1-4 EEL =       -10.4336  VDWAALS    =         0.0000
 EELEC  =         7.8082  EHBOND  =         0.0000  RESTRAINT  =         0.0000
 DV/DL  =        -2.6206
 ------------------------------------------------------------------------------

      A V E R A G E S   O V E R    1000 S T E P S

 NSTEP =     2000   TIME(PS) =       2.000  TEMP(K) =   287.66  PRESS =     0.0
 Etot   =        21.5399  EKtot   =         6.0022  EPtot      =        15.5376
 BOND   =         1.9424  ANGLE   =         5.8782  DIHED      =         5.2578
 1-4 NB =         0.3736  1-4 EEL =         8.2823  VDWAALS    =        -0.0001
 EELEC  =        -6.1965  EHBOND  =         0.0000  RESTRAINT  =         0.0000
 DV/DL  =        -2.6285
 ------------------------------------------------------------------------------

      R M S  F L U C T U A T I O N S

 NSTEP =     2000   TIME(PS) =       2.000  TEMP(K) =    79.89  PRESS =     0.0
 Etot   =         1.1369  EKtot   =         1.6670  EPtot      =         1.7215
 BOND   =         0.9416  ANGLE   =         1.4975  DIHED      =         0.0577
 1-4 NB =         0.2094  1-4 EEL =         0.1099  VDWAALS    =         0.0000
 EELEC  =         0.0017  EHBOND  =         0.0000  RESTRAINT  =         0.0000
 DV/DL  =         0.1570
 ------------------------------------------------------------------------------

      A V E R A G E S   O V E R    1000 S T E P S

 NSTEP =     2000   TIME(PS) =       2.000  TEMP(K) =   287.68  PRESS =     0.0
 Etot   =        21.5402  EKtot   =         6.0026  EPtot      =        15.5376
 BOND   =         1.9424  ANGLE   =         5.8782  DIHED      =         5.2578
 1-4 NB =         0.3736  1-4 EEL =         8.2823  VDWAALS    =        -0.0001
 EELEC  =        -6.1965  EHBOND  =         0.0000  RESTRAINT  =         0.0000
 DV/DL  =        -2.6285
 ------------------------------------------------------------------------------

      R M S  F L U C T U A T I O N S

 NSTEP =     2000   TIME(PS) =       2.000  TEMP(K) =    79.93  PRESS =     0.0
 Etot   =         1.1445  EKtot   =         1.6677  EPtot      =         1.7215
 BOND   =         0.9416  ANGLE   =         1.4975  DIHED      =         0.0577
 1-4 NB =         0.2094  1-4 EEL =         0.1099  VDWAALS    =         0.0000
 EELEC  =         0.0017  EHBOND  =         0.0000  RESTRAINT  =         0.0000
 DV/DL  =         0.1570
 ------------------------------------------------------------------------------

      DV/DL, AVERAGES OVER    1000 STEPS

 NSTEP =     2000   TIME(PS) =       2.000  TEMP(K) =    79.93  PRESS =     0.0
 Etot   =         0.0000  EKtot   =         0.0000  EPtot      =        -2.6285
 BOND   =         0.0006  ANGLE   =        -0.0011  DIHED      =         0.0000
 1-4 NB =        -0.0000  1-4 EEL =       -10.4355  VDWAALS    =         0.0000
 EELEC  =         7.8075  EHBOND  =         0.0000  RESTRAINT  =         0.0000
 DV/DL  =        -2.6285
 ------------------------------------------------------------------------------

      A V E R A G E S   O V E R    1000 S T E P S

 NSTEP =  1000000   TIME(PS) =    1000.000  TEMP(K) =   303.08  PRESS =     0.0
 Etot   =        20.5876  EKtot   =         6.3239  EPtot      =        14.2637
 BOND   =         1.9615  ANGLE   =         4.6214  DIHED      =         5.2663
 1-4 NB =         0.3306  1-4 EEL =         8.2794  VDWAALS    =        -0.0001
 EELEC  =        -6.1953  EHBOND  =         0.0000  RESTRAINT  =         0.0000
 DV/DL  =        -2.6238
 ------------------------------------------------------------------------------

      R M S  F L U C T U A T I O N S

 NSTEP =  1000000   TIME(PS) =    1000.000  TEMP(K) =    55.22  PRESS =     0.0
 Etot   =         1.0810  EKtot   =         1.1522  EPtot      =         1.1262
 BOND   =         0.7981  ANGLE   =         0.8675  DIHED      =         0.0622
 1-4 NB =         0.1681  1-4 EEL =         0.1253  VDWAALS    =         0.0000
 EELEC  =         0.0023  EHBOND  =         0.0000  RESTRAINT  =         0.0000
 DV/DL  =         0.1778
 ------------------------------------------------------------------------------

      A V E R A G E S   O V E R    1000 S T E P S

 NSTEP =  1000000   TIME(PS) =    1000.000  TEMP(K) =   303.32  PRESS =     0.0
 Etot   =        20.5927  EKtot   =         6.3290  EPtot      =        14.2637
 BOND   =         1.9615  ANGLE   =         4.6214  DIHED      =         5.2663
 1-4 NB =         0.3306  1-4 EEL =         8.2794  VDWAALS    =        -0.0001
 EELEC  =        -6.1953  EHBOND  =         0.0000  RESTRAINT  =         0.0000
 DV/DL  =        -2.6238
 ------------------------------------------------------------------------------

      R M S  F L U C T U A T I O N S

 NSTEP =  1000000   TIME(PS) =    1000.000  TEMP(K) =    55.52  PRESS =     0.0
 Etot   =         1.0862  EKtot   =         1.1584  EPtot      =         1.1262
 BOND   =         0.7981  ANGLE   =         0.8675  DIHED      =         0.0622
 1-4 NB =         0.1681  1-4 EEL =         0.1253  VDWAALS    =         0.0000
 EELEC  =         0.0023  EHBOND  =         0.0000  RESTRAINT  =         0.0000
 DV/DL  =         0.1778
 ------------------------------------------------------------------------------

      DV/DL, AVERAGES OVER    1000 STEPS

 NSTEP =  1000000   TIME(PS) =    1000.000  TEMP(K) =    55.52  PRESS =     0.0
 Etot   =         0.0000  EKtot   =         0.0000  EPtot      =        -2.6238
 BOND   =         0.0024  ANGLE   =        -0.0002  DIHED      =        -0.0000
 1-4 NB =        -0.0001  1-4 EEL =       -10.4319  VDWAALS    =         0.0000
 EELEC  =         7.8060  EHBOND  =         0.0000  RESTRAINT  =         0.0000
 DV/DL  =        -2.6238
 ------------------------------------------------------------------------------

      A V E R A G E S   O V E R 1000000 S T E P S

 NSTEP =  1000000   TIME(PS) =    1000.000  TEMP(K) =   306.91  PRESS =     0.0
 Etot   =        21.2837  EKtot   =         6.4039  EPtot      =        14.8798
 BOND   =         2.0441  ANGLE   =         5.1122  DIHED      =         5.2781
 1-4 NB =         0.3597  1-4 EEL =         8.2824  VDWAALS    =        -0.0001
 EELEC  =        -6.1966  EHBOND  =         0.0000  RESTRAINT  =         0.0000
 DV/DL  =        -2.6281
 ------------------------------------------------------------------------------

      R M S  F L U C T U A T I O N S

 NSTEP =  1000000   TIME(PS) =    1000.000  TEMP(K) =    94.67  PRESS =     0.0
 Etot   =         2.5854  EKtot   =         1.9754  EPtot      =         1.6849
 BOND   =         1.1846  ANGLE   =         1.1782  DIHED      =         0.0865
 1-4 NB =         0.2078  1-4 EEL =         0.1323  VDWAALS    =         0.0000
 EELEC  =         0.0022  EHBOND  =         0.0000  RESTRAINT  =         0.0000
 DV/DL  =         0.1814
 ------------------------------------------------------------------------------

      A V E R A G E S   O V E R 1000000 S T E P S

 NSTEP =  1000000   TIME(PS) =    1000.000  TEMP(K) =   306.92  PRESS =     0.0
 Etot   =        21.2839  EKtot   =         6.4041  EPtot      =        14.8798
 BOND   =         2.0441  ANGLE   =         5.1122  DIHED      =         5.2781
 1-4 NB =         0.3597  1-4 EEL =         8.2824  VDWAALS    =        -0.0001
 EELEC  =        -6.1966  EHBOND  =         0.0000  RESTRAINT  =         0.0000
 DV/DL  =        -2.6281
 ------------------------------------------------------------------------------

      R M S  F L U C T U A T I O N S

 NSTEP =  1000000   TIME(PS) =    1000.000  TEMP(K) =    94.69  PRESS =     0.0
 Etot   =         2.5855  EKtot   =         1.9757  EPtot      =         1.6849
 BOND   =         1.1846  ANGLE   =         1.1782  DIHED      =         0.0865
 1-4 NB =         0.2078  1-4 EEL =         0.1323  VDWAALS    =         0.0000
 EELEC  =         0.0022  EHBOND  =         0.0000  RESTRAINT  =         0.0000
 DV/DL  =         0.1814
 ------------------------------------------------------------------------------

      DV/DL, AVERAGES OVER 1000000 STEPS

 NSTEP =  1000000   TIME(PS) =    1000.000  TEMP(K) =    94.69  PRESS =     0.0
 Etot   =         0.0000  EKtot   =         0.0000  EPtot      =        -2.6281
 BOND   =         0.0000  ANGLE   =         0.0000  DIHED      =         0.0000
 1-4 NB =         0.0000  1-4 EEL =       -10.4357  VDWAALS    =         0.0000
 EELEC  =         7.8076  EHBOND  =         0.0000  RESTRAINT  =         0.0000
 DV/DL  =        -2.6281
 ------------------------------------------------------------------------------
