-------------------------------------------------------
          Amber 20 PMEMD                              2020
          -------------------------------------------------------

  [-O]verwriting output

File Assignments:

 Here is the input file:

 &cntrl
   nstlim=4000000, nscm=1000,
   ntx=5, irest=1, ntpr=1000,
   tempi=300.0, temp0=300.0, ntt=3, gamma_ln=2.0,
   ntb=1, igb=0, cut=10.0,
   dt=0.001, ig=-1,
   ntc=1, ntf=1,
   iwrap=0,
   ntwr=1000, ntwx=50000, ntave=1000,
   ioutfm=1, ntwv=-1,
   ifsc = 0, icfe=1,
   clambda=0.20634,
   timask1=':1',
   timask2=':2', crgmask = ':2',
/

Note: ig = -1. Setting random seed to   833446 based on wallclock time in
      microseconds.

--------------------------------------------------------------------------------
   1.  RESOURCE   USE:
--------------------------------------------------------------------------------

 getting box info from netcdf restart file
 NATOM  =      14 NTYPES =       6 NBONH =       6 MBONA  =       6
 NTHETH =      12 MTHETA =       6 NPHIH =      24 MPHIA  =       2
 NHPARM =       0 NPARM  =       0 NNB   =      44 NRES   =       2
 NBONA  =       6 NTHETA =       6 NPHIA =       2 NUMBND =       3
 NUMANG =       4 NPTRA  =       3 NATYP =       6 NPHB   =       1
 IFBOX  =       2 NMXRS  =       7 IFCAP =       0 NEXTRA =       0
 NCOPY  =       0

     BOX TYPE: TRUNCATED OCTAHEDRON

--------------------------------------------------------------------------------
   2.  CONTROL  DATA  FOR  THE  RUN
--------------------------------------------------------------------------------

default_name

General flags:
     imin    =       0, nmropt  =       0

Nature and format of input:
     ntx     =       5, irest   =       1, ntrx    =       1

Nature and format of output:
     ntxo    =       2, ntpr    =    1000, ntrx    =       1, ntwr    =    1000
     iwrap   =       0, ntwx    =   50000, ntwv    =      -1, ntwe    =       0
     ioutfm  =       1, ntwprt  =       0, idecomp =       0, rbornstat=      0

Potential function:
     ntf     =       1, ntb     =       1, igb     =       0, nsnb    =      25
     ipol    =       0, gbsa    =       0, iesp    =       0
     dielc   =   1.00000, cut     =  10.00000, intdiel =   1.00000

Frozen or restrained atoms:
     ibelly  =       0, ntr     =       0

Molecular dynamics:
     nstlim  =   4000000, nscm    =      1000, nrespa  =         1
     t       =   0.00000, dt      =   0.00100, vlimit  =  -1.00000

Langevin dynamics temperature regulation:
     ig      =  833446
     temp0   = 300.00000, tempi   = 300.00000, gamma_ln=   2.00000

Free energy options:
     icfe    =       1, ifsc    =       0, klambda =       1
     clambda =  0.2063, scalpha =  0.5000, scbeta  = 12.0000
     sceeorder =       2
     dynlmb =  0.0000 logdvdl =       0

Ewald parameters:
     verbose =       0, ew_type =       0, nbflag  =       1, use_pme =       1
     vdwmeth =       1, eedmeth =       1, netfrc  =       1
     Box X =   66.953   Box Y =   66.953   Box Z =   66.953
     Alpha =  109.471   Beta  =  109.471   Gamma =  109.471
     NFFT1 =   64       NFFT2 =   64       NFFT3 =   64
     Cutoff=   10.000   Tol   =0.100E-04
     Ewald Coefficient =  0.27511
     Interpolation order =    4
     TI Mask 1 :1; matches      7 atoms
     TI Mask 2 :2; matches      7 atoms
     TI region 1:       7 atoms
     TI region 2:       7 atoms
Removing charge of      -0.8188 from atom       8
Removing charge of      -0.8188 from atom       9
Removing charge of       0.8054 from atom      10
Removing charge of      -0.1021 from atom      11
Removing charge of      -0.0219 from atom      12
Removing charge of      -0.0219 from atom      13
Removing charge of      -0.0219 from atom      14
Total charge of  -0.99999900 removed from       7 atoms
     Checking for mismatched coordinates.
     WARNING: Local coordinate       1 differs from partner coordinate       8 !
     Deviation is small, changing partner coordinate.
     WARNING: Local coordinate       1 differs from partner coordinate       8 !
     Deviation is small, changing partner coordinate.
     WARNING: Local coordinate       1 differs from partner coordinate       8 !
     Deviation is small, changing partner coordinate.
     WARNING: Local coordinate       2 differs from partner coordinate       9 !
     Deviation is small, changing partner coordinate.
     WARNING: Local coordinate       2 differs from partner coordinate       9 !
     Deviation is small, changing partner coordinate.
     WARNING: Local coordinate       2 differs from partner coordinate       9 !
     Deviation is small, changing partner coordinate.
     WARNING: Local coordinate       3 differs from partner coordinate      10 !
     Deviation is small, changing partner coordinate.
     WARNING: Local coordinate       3 differs from partner coordinate      10 !
     Deviation is small, changing partner coordinate.
     WARNING: Local coordinate       3 differs from partner coordinate      10 !
     Deviation is small, changing partner coordinate.
     ... making more adjustments ...
     A total of      21 small coordinate adjustments were made, check results carefully.

--------------------------------------------------------------------------------
   3.  ATOMIC COORDINATES AND VELOCITIES
--------------------------------------------------------------------------------

default_name
 begin time read from input coords =  1000.000 ps

 Number of triangulated 3-point waters found:        0

     Sum of charges for TI region  1 =  -0.99999900
     Skip neutralizing charges...

     Sum of charges for TI region  2 =   0.00000000
     Skip neutralizing charges...

--------------------------------------------------------------------------------
   4.  RESULTS
 NSTEP =     1000   TIME(PS) =    1001.000  TEMP(K) =   289.32  PRESS =     0.0
 Etot   =        22.9215  EKtot   =         6.0367  EPtot      =        16.8848
 BOND   =         2.0564  ANGLE   =         7.2381  DIHED      =         5.2230
 1-4 NB =         0.3669  1-4 EEL =         8.1996  VDWAALS    =        -0.0001
 EELEC  =        -6.1990  EHBOND  =         0.0000  RESTRAINT  =         0.0000
 DV/DL  =        -2.4967
 ------------------------------------------------------------------------------

      A V E R A G E S   O V E R    1000 S T E P S

 NSTEP =     1000   TIME(PS) =    1001.000  TEMP(K) =   265.76  PRESS =     0.0
 Etot   =        20.1755  EKtot   =         5.5452  EPtot      =        14.6303
 BOND   =         1.9332  ANGLE   =         4.9510  DIHED      =         5.2858
 1-4 NB =         0.3719  1-4 EEL =         8.2853  VDWAALS    =        -0.0001
 EELEC  =        -6.1967  EHBOND  =         0.0000  RESTRAINT  =         0.0000
 DV/DL  =        -2.6311
 ------------------------------------------------------------------------------

      R M S  F L U C T U A T I O N S

 NSTEP =     1000   TIME(PS) =    1001.000  TEMP(K) =    75.89  PRESS =     0.0
 Etot   =         1.8516  EKtot   =         1.5834  EPtot      =         1.3346
 BOND   =         0.9535  ANGLE   =         1.0143  DIHED      =         0.1177
 1-4 NB =         0.2367  1-4 EEL =         0.1680  VDWAALS    =         0.0000
 EELEC  =         0.0015  EHBOND  =         0.0000  RESTRAINT  =         0.0000
 DV/DL  =         0.2228
 ------------------------------------------------------------------------------

      A V E R A G E S   O V E R    1000 S T E P S

 NSTEP =     1000   TIME(PS) =    1001.000  TEMP(K) =   265.80  PRESS =     0.0
 Etot   =        20.1764  EKtot   =         5.5461  EPtot      =        14.6303
 BOND   =         1.9332  ANGLE   =         4.9510  DIHED      =         5.2858
 1-4 NB =         0.3719  1-4 EEL =         8.2853  VDWAALS    =        -0.0001
 EELEC  =        -6.1967  EHBOND  =         0.0000  RESTRAINT  =         0.0000
 DV/DL  =        -2.6311
 ------------------------------------------------------------------------------

      R M S  F L U C T U A T I O N S

 NSTEP =     1000   TIME(PS) =    1001.000  TEMP(K) =    76.05  PRESS =     0.0
 Etot   =         1.8497  EKtot   =         1.5868  EPtot      =         1.3346
 BOND   =         0.9535  ANGLE   =         1.0143  DIHED      =         0.1177
 1-4 NB =         0.2367  1-4 EEL =         0.1680  VDWAALS    =         0.0000
 EELEC  =         0.0015  EHBOND  =         0.0000  RESTRAINT  =         0.0000
 DV/DL  =         0.2228
 ------------------------------------------------------------------------------

      DV/DL, AVERAGES OVER    1000 STEPS

 NSTEP =     1000   TIME(PS) =    1001.000  TEMP(K) =    76.05  PRESS =     0.0
 Etot   =         0.0000  EKtot   =         0.0000  EPtot      =        -2.6311
 BOND   =         0.0006  ANGLE   =        -0.0001  DIHED      =        -0.0000
 1-4 NB =        -0.0000  1-4 EEL =       -10.4393  VDWAALS    =         0.0000
 EELEC  =         7.8078  EHBOND  =         0.0000  RESTRAINT  =         0.0000
 DV/DL  =        -2.6311
 ------------------------------------------------------------------------------

      A V E R A G E S   O V E R    1000 S T E P S

 NSTEP =     2000   TIME(PS) =    1002.000  TEMP(K) =   276.01  PRESS =     0.0
 Etot   =        20.0219  EKtot   =         5.7591  EPtot      =        14.2628
 BOND   =         2.2104  ANGLE   =         4.4063  DIHED      =         5.2380
 1-4 NB =         0.3273  1-4 EEL =         8.2769  VDWAALS    =        -0.0001
 EELEC  =        -6.1959  EHBOND  =         0.0000  RESTRAINT  =         0.0000
 DV/DL  =        -2.6199
 ------------------------------------------------------------------------------

      R M S  F L U C T U A T I O N S

 NSTEP =     2000   TIME(PS) =    1002.000  TEMP(K) =    55.21  PRESS =     0.0
 Etot   =         1.1464  EKtot   =         1.1520  EPtot      =         1.1812
 BOND   =         0.9664  ANGLE   =         0.6934  DIHED      =         0.0333
 1-4 NB =         0.1501  1-4 EEL =         0.1197  VDWAALS    =         0.0000
 EELEC  =         0.0028  EHBOND  =         0.0000  RESTRAINT  =         0.0000
 DV/DL  =         0.1650
 ------------------------------------------------------------------------------

      A V E R A G E S   O V E R    1000 S T E P S

 NSTEP =     2000   TIME(PS) =    1002.000  TEMP(K) =   276.04  PRESS =     0.0
 Etot   =        20.0224  EKtot   =         5.7597  EPtot      =        14.2628
 BOND   =         2.2104  ANGLE   =         4.4063  DIHED      =         5.2380
 1-4 NB =         0.3273  1-4 EEL =         8.2769  VDWAALS    =        -0.0001
 EELEC  =        -6.1959  EHBOND  =         0.0000  RESTRAINT  =         0.0000
 DV/DL  =        -2.6199
 ------------------------------------------------------------------------------

      R M S  F L U C T U A T I O N S

 NSTEP =     2000   TIME(PS) =    1002.000  TEMP(K) =    55.22  PRESS =     0.0
 Etot   =         1.1523  EKtot   =         1.1523  EPtot      =         1.1812
 BOND   =         0.9664  ANGLE   =         0.6934  DIHED      =         0.0333
 1-4 NB =         0.1501  1-4 EEL =         0.1197  VDWAALS    =         0.0000
 EELEC  =         0.0028  EHBOND  =         0.0000  RESTRAINT  =         0.0000
 DV/DL  =         0.1650
 ------------------------------------------------------------------------------

      DV/DL, AVERAGES OVER    1000 STEPS

 NSTEP =     2000   TIME(PS) =    1002.000  TEMP(K) =    55.22  PRESS =     0.0
 Etot   =         0.0000  EKtot   =         0.0000  EPtot      =        -2.6199
 BOND   =         0.0018  ANGLE   =         0.0003  DIHED      =         0.0000
 1-4 NB =        -0.0001  1-4 EEL =       -10.4288  VDWAALS    =         0.0000
 EELEC  =         7.8068  EHBOND  =         0.0000  RESTRAINT  =         0.0000
 DV/DL  =        -2.6199
 ------------------------------------------------------------------------------

      R M S  F L U C T U A T I O N S

 NSTEP =   334000   TIME(PS) =    1334.000  TEMP(K) =    67.41  PRESS =     0.0
 Etot   =         1.0579  EKtot   =         1.4066  EPtot      =         1.3380
 BOND   =         0.8711  ANGLE   =         1.1944  DIHED      =         0.0844
 1-4 NB =         0.2032  1-4 EEL =         0.1423  VDWAALS    =         0.0000
 EELEC  =         0.0023  EHBOND  =         0.0000  RESTRAINT  =         0.0000
 DV/DL  =         0.1924
 ------------------------------------------------------------------------------

      DV/DL, AVERAGES OVER    1000 STEPS

 NSTEP =   334000   TIME(PS) =    1334.000  TEMP(K) =    67.41  PRESS =     0.0
 Etot   =         0.0000  EKtot   =         0.0000  EPtot      =        -2.6350
 BOND   =        -0.0021  ANGLE   =        -0.0007  DIHED      =        -0.0001
 1-4 NB =         0.0000  1-4 EEL =       -10.4409  VDWAALS    =         0.0000
 EELEC  =         7.8087  EHBOND  =         0.0000  RESTRAINT  =         0.0000
 DV/DL  =        -2.6350
 ------------------------------------------------------------------------------

      A V E R A G E S   O V E R    1000 S T E P S

 NSTEP =   335000   TIME(PS) =    1335.000  TEMP(K) =   336.21  PRESS =     0.0
 Etot   =        22.1878  EKtot   =         7.0152  EPtot      =        15.1725
 BOND   =         1.9659  ANGLE   =         5.5091  DIHED      =         5.2543
 1-4 NB =         0.3570  1-4 EEL =         8.2827  VDWAALS    =        -0.0001
 EELEC  =        -6.1965  EHBOND  =         0.0000  RESTRAINT  =         0.0000
 DV/DL  =        -2.6236
 ------------------------------------------------------------------------------

      R M S  F L U C T U A T I O N S

 NSTEP =   335000   TIME(PS) =    1335.000  TEMP(K) =    87.72  PRESS =     0.0
 Etot   =         1.4991  EKtot   =         1.8303  EPtot      =         1.3964
 BOND   =         0.9441  ANGLE   =         1.0466  DIHED      =         0.0461
 1-4 NB =         0.1515  1-4 EEL =         0.0984  VDWAALS    =         0.0000
 EELEC  =         0.0018  EHBOND  =         0.0000  RESTRAINT  =         0.0000
 DV/DL  =         0.1451
 ------------------------------------------------------------------------------

      A V E R A G E S   O V E R    1000 S T E P S

 NSTEP =   335000   TIME(PS) =    1335.000  TEMP(K) =   335.97  PRESS =     0.0
 Etot   =        22.1828  EKtot   =         7.0103  EPtot      =        15.1725
 BOND   =         1.9659  ANGLE   =         5.5091  DIHED      =         5.2543
 1-4 NB =         0.3570  1-4 EEL =         8.2827  VDWAALS    =        -0.0001
 EELEC  =        -6.1965  EHBOND  =         0.0000  RESTRAINT  =         0.0000
 DV/DL  =        -2.6236
 ------------------------------------------------------------------------------

      R M S  F L U C T U A T I O N S

 NSTEP =   335000   TIME(PS) =    1335.000  TEMP(K) =    87.72  PRESS =     0.0
 Etot   =         1.5000  EKtot   =         1.8303  EPtot      =         1.3964
 BOND   =         0.9441  ANGLE   =         1.0466  DIHED      =         0.0461
 1-4 NB =         0.1515  1-4 EEL =         0.0984  VDWAALS    =         0.0000
 EELEC  =         0.0018  EHBOND  =         0.0000  RESTRAINT  =         0.0000
 DV/DL  =         0.1451
 ------------------------------------------------------------------------------

      DV/DL, AVERAGES OVER    1000 STEPS

 NSTEP =   335000   TIME(PS) =    1335.000  TEMP(K) =    87.72  PRESS =     0.0
 Etot   =         0.0000  EKtot   =         0.0000  EPtot      =        -2.6236
 BOND   =         0.0058  ANGLE   =        -0.0006  DIHED      =         0.0000
 1-4 NB =        -0.0001  1-4 EEL =       -10.4361  VDWAALS    =         0.0000
 EELEC  =         7.8075  EHBOND  =         0.0000  RESTRAINT  =         0.0000
 DV/DL  =        -2.6236
 ------------------------------------------------------------------------------

      A V E R A G E S   O V E R    1000 S T E P S

 NSTEP =   336000   TIME(PS) =    1336.000  TEMP(K) =   315.98  PRESS =     0.0
 Etot   =        21.4718  EKtot   =         6.5931  EPtot      =        14.8787
 BOND   =         2.0747  ANGLE   =         5.0779  DIHED      =         5.2821
 1-4 NB =         0.3609  1-4 EEL =         8.2801  VDWAALS    =        -0.0001
 EELEC  =        -6.1968  EHBOND  =         0.0000  RESTRAINT  =         0.0000
 DV/DL  =        -2.6240
 ------------------------------------------------------------------------------

      R M S  F L U C T U A T I O N S

 NSTEP =   336000   TIME(PS) =    1336.000  TEMP(K) =    68.62  PRESS =     0.0
 Etot   =         1.4781  EKtot   =         1.4319  EPtot      =         1.2053
 BOND   =         0.9256  ANGLE   =         1.0105  DIHED      =         0.0801
 1-4 NB =         0.2107  1-4 EEL =         0.1515  VDWAALS    =         0.0000
 EELEC  =         0.0024  EHBOND  =         0.0000  RESTRAINT  =         0.0000
 DV/DL  =         0.2040
 ------------------------------------------------------------------------------

      A V E R A G E S   O V E R    1000 S T E P S

 NSTEP =   336000   TIME(PS) =    1336.000  TEMP(K) =   316.04  PRESS =     0.0
 Etot   =        21.4731  EKtot   =         6.5943  EPtot      =        14.8787
 BOND   =         2.0747  ANGLE   =         5.0779  DIHED      =         5.2821
 1-4 NB =         0.3609  1-4 EEL =         8.2801  VDWAALS    =        -0.0001
 EELEC  =        -6.1968  EHBOND  =         0.0000  RESTRAINT  =         0.0000
