-------------------------------------------------------
          Amber 20 PMEMD                              2020
          -------------------------------------------------------

  [-O]verwriting output

File Assignments:

 Here is the input file:

 &cntrl
   nstlim=1000000, nscm=1000,
   ntx=1, irest=0, ntpr=1000,
   tempi=300.0, temp0=300.0, ntt=3, gamma_ln=2.0,
   ntb=1, igb=0, cut=10.0,
   dt=0.001, ig=-1,
   ntc=1, ntf=1,
   iwrap=0,
   ntwr=1000, ntwx=50000, ntave=1000,
   ioutfm=1, ntwv=-1,
   ifsc = 0, icfe=1,
   clambda=0.43738,
   timask1=':1',
   timask2=':2', crgmask = ':2',
/

Note: ig = -1. Setting random seed to   372178 based on wallclock time in
      microseconds.

--------------------------------------------------------------------------------
   1.  RESOURCE   USE:
--------------------------------------------------------------------------------

 getting box info from netcdf restart file
 NATOM  =      14 NTYPES =       6 NBONH =       6 MBONA  =       6
 NTHETH =      12 MTHETA =       6 NPHIH =      24 MPHIA  =       2
 NHPARM =       0 NPARM  =       0 NNB   =      44 NRES   =       2
 NBONA  =       6 NTHETA =       6 NPHIA =       2 NUMBND =       3
 NUMANG =       4 NPTRA  =       3 NATYP =       6 NPHB   =       1
 IFBOX  =       2 NMXRS  =       7 IFCAP =       0 NEXTRA =       0
 NCOPY  =       0

     BOX TYPE: TRUNCATED OCTAHEDRON

--------------------------------------------------------------------------------
   2.  CONTROL  DATA  FOR  THE  RUN
--------------------------------------------------------------------------------

default_name

General flags:
     imin    =       0, nmropt  =       0

Nature and format of input:
     ntx     =       1, irest   =       0, ntrx    =       1

Nature and format of output:
     ntxo    =       2, ntpr    =    1000, ntrx    =       1, ntwr    =    1000
     iwrap   =       0, ntwx    =   50000, ntwv    =      -1, ntwe    =       0
     ioutfm  =       1, ntwprt  =       0, idecomp =       0, rbornstat=      0

Potential function:
     ntf     =       1, ntb     =       1, igb     =       0, nsnb    =      25
     ipol    =       0, gbsa    =       0, iesp    =       0
     dielc   =   1.00000, cut     =  10.00000, intdiel =   1.00000

Frozen or restrained atoms:
     ibelly  =       0, ntr     =       0

Molecular dynamics:
     nstlim  =   1000000, nscm    =      1000, nrespa  =         1
     t       =   0.00000, dt      =   0.00100, vlimit  =  -1.00000

Langevin dynamics temperature regulation:
     ig      =  372178
     temp0   = 300.00000, tempi   = 300.00000, gamma_ln=   2.00000

Free energy options:
     icfe    =       1, ifsc    =       0, klambda =       1
     clambda =  0.4374, scalpha =  0.5000, scbeta  = 12.0000
     sceeorder =       2
     dynlmb =  0.0000 logdvdl =       0

Ewald parameters:
     verbose =       0, ew_type =       0, nbflag  =       1, use_pme =       1
     vdwmeth =       1, eedmeth =       1, netfrc  =       1
     Box X =   66.953   Box Y =   66.953   Box Z =   66.953
     Alpha =  109.471   Beta  =  109.471   Gamma =  109.471
     NFFT1 =   64       NFFT2 =   64       NFFT3 =   64
     Cutoff=   10.000   Tol   =0.100E-04
     Ewald Coefficient =  0.27511
     Interpolation order =    4
     TI Mask 1 :1; matches      7 atoms
     TI Mask 2 :2; matches      7 atoms
     TI region 1:       7 atoms
     TI region 2:       7 atoms
Removing charge of      -0.8188 from atom       8
Removing charge of      -0.8188 from atom       9
Removing charge of       0.8054 from atom      10
Removing charge of      -0.1021 from atom      11
Removing charge of      -0.0219 from atom      12
Removing charge of      -0.0219 from atom      13
Removing charge of      -0.0219 from atom      14
Total charge of  -0.99999900 removed from       7 atoms
     Checking for mismatched coordinates.

--------------------------------------------------------------------------------
   3.  ATOMIC COORDINATES AND VELOCITIES
--------------------------------------------------------------------------------

default_name
 begin time read from input coords =     0.000 ps

 Number of triangulated 3-point waters found:        0

     Sum of charges for TI region  1 =  -0.99999900
     Skip neutralizing charges...

     Sum of charges for TI region  2 =   0.00000000
     Skip neutralizing charges...

--------------------------------------------------------------------------------
   4.  RESULTS
 NSTEP =        0   TIME(PS) =       0.000  TEMP(K) =   245.75  PRESS =     0.0
 Etot   =        14.9436  EKtot   =         5.1278  EPtot      =         9.8158
 BOND   =         0.0264  ANGLE   =         2.7988  DIHED      =         5.2188
 1-4 NB =         0.2933  1-4 EEL =         5.8710  VDWAALS    =        -0.0001
 EELEC  =        -4.3925  EHBOND  =         0.0000  RESTRAINT  =         0.0000
 DV/DL  =        -2.6280
 ------------------------------------------------------------------------------

      A V E R A G E S   O V E R    1000 S T E P S

 NSTEP =     1000   TIME(PS) =       1.000  TEMP(K) =   272.24  PRESS =     0.0
 Etot   =        18.9387  EKtot   =         5.6805  EPtot      =        13.2582
 BOND   =         1.8305  ANGLE   =         4.3613  DIHED      =         5.2440
 1-4 NB =         0.3434  1-4 EEL =         5.8720  VDWAALS    =        -0.0001
 EELEC  =        -4.3928  EHBOND  =         0.0000  RESTRAINT  =         0.0000
 DV/DL  =        -2.6269
 ------------------------------------------------------------------------------

      R M S  F L U C T U A T I O N S

 NSTEP =     1000   TIME(PS) =       1.000  TEMP(K) =   110.45  PRESS =     0.0
 Etot   =         3.1151  EKtot   =         2.3046  EPtot      =         1.5927
 BOND   =         1.1480  ANGLE   =         0.8491  DIHED      =         0.0411
 1-4 NB =         0.1807  1-4 EEL =         0.0836  VDWAALS    =         0.0000
 EELEC  =         0.0016  EHBOND  =         0.0000  RESTRAINT  =         0.0000
 DV/DL  =         0.1671
 ------------------------------------------------------------------------------

      A V E R A G E S   O V E R    1000 S T E P S

 NSTEP =     1000   TIME(PS) =       1.000  TEMP(K) =   272.10  PRESS =     0.0
 Etot   =        18.9357  EKtot   =         5.6775  EPtot      =        13.2582
 BOND   =         1.8305  ANGLE   =         4.3613  DIHED      =         5.2440
 1-4 NB =         0.3434  1-4 EEL =         5.8720  VDWAALS    =        -0.0001
 EELEC  =        -4.3928  EHBOND  =         0.0000  RESTRAINT  =         0.0000
 DV/DL  =        -2.6269
 ------------------------------------------------------------------------------

      R M S  F L U C T U A T I O N S

 NSTEP =     1000   TIME(PS) =       1.000  TEMP(K) =   110.45  PRESS =     0.0
 Etot   =         3.1123  EKtot   =         2.3045  EPtot      =         1.5927
 BOND   =         1.1480  ANGLE   =         0.8491  DIHED      =         0.0411
 1-4 NB =         0.1807  1-4 EEL =         0.0836  VDWAALS    =         0.0000
 EELEC  =         0.0016  EHBOND  =         0.0000  RESTRAINT  =         0.0000
 DV/DL  =         0.1671
 ------------------------------------------------------------------------------

      DV/DL, AVERAGES OVER    1000 STEPS

 NSTEP =     1000   TIME(PS) =       1.000  TEMP(K) =   110.45  PRESS =     0.0
 Etot   =         0.0000  EKtot   =         0.0000  EPtot      =        -2.6269
 BOND   =         0.0018  ANGLE   =         0.0004  DIHED      =         0.0000
 1-4 NB =         0.0001  1-4 EEL =       -10.4369  VDWAALS    =         0.0000
 EELEC  =         7.8077  EHBOND  =         0.0000  RESTRAINT  =         0.0000
 DV/DL  =        -2.6269
 ------------------------------------------------------------------------------

      A V E R A G E S   O V E R    1000 S T E P S

 NSTEP =     2000   TIME(PS) =       2.000  TEMP(K) =   385.11  PRESS =     0.0
 Etot   =        24.5465  EKtot   =         8.0355  EPtot      =        16.5110
 BOND   =         3.2989  ANGLE   =         6.0639  DIHED      =         5.2602
 1-4 NB =         0.3992  1-4 EEL =         5.8808  VDWAALS    =        -0.0001
 EELEC  =        -4.3919  EHBOND  =         0.0000  RESTRAINT  =         0.0000
 DV/DL  =        -2.6515
 ------------------------------------------------------------------------------

      R M S  F L U C T U A T I O N S

 NSTEP =     2000   TIME(PS) =       2.000  TEMP(K) =    84.72  PRESS =     0.0
 Etot   =         1.4063  EKtot   =         1.7676  EPtot      =         1.8582
 BOND   =         1.5933  ANGLE   =         1.2778  DIHED      =         0.0634
 1-4 NB =         0.2014  1-4 EEL =         0.0864  VDWAALS    =         0.0000
 EELEC  =         0.0021  EHBOND  =         0.0000  RESTRAINT  =         0.0000
 DV/DL  =         0.1772
 ------------------------------------------------------------------------------

      A V E R A G E S   O V E R    1000 S T E P S

 NSTEP =     2000   TIME(PS) =       2.000  TEMP(K) =   385.23  PRESS =     0.0
 Etot   =        24.5490  EKtot   =         8.0380  EPtot      =        16.5110
 BOND   =         3.2989  ANGLE   =         6.0639  DIHED      =         5.2602
 1-4 NB =         0.3992  1-4 EEL =         5.8808  VDWAALS    =        -0.0001
 EELEC  =        -4.3919  EHBOND  =         0.0000  RESTRAINT  =         0.0000
 DV/DL  =        -2.6515
 ------------------------------------------------------------------------------

      R M S  F L U C T U A T I O N S

 NSTEP =     2000   TIME(PS) =       2.000  TEMP(K) =    84.87  PRESS =     0.0
 Etot   =         1.4146  EKtot   =         1.7709  EPtot      =         1.8582
 BOND   =         1.5933  ANGLE   =         1.2778  DIHED      =         0.0634
 1-4 NB =         0.2014  1-4 EEL =         0.0864  VDWAALS    =         0.0000
 EELEC  =         0.0021  EHBOND  =         0.0000  RESTRAINT  =         0.0000
 DV/DL  =         0.1772
 ------------------------------------------------------------------------------

      DV/DL, AVERAGES OVER    1000 STEPS

 NSTEP =     2000   TIME(PS) =       2.000  TEMP(K) =    84.87  PRESS =     0.0
 Etot   =         0.0000  EKtot   =         0.0000  EPtot      =        -2.6515
 BOND   =        -0.0037  ANGLE   =        -0.0013  DIHED      =         0.0000
 1-4 NB =        -0.0002  1-4 EEL =       -10.4526  VDWAALS    =         0.0000
 EELEC  =         7.8062  EHBOND  =         0.0000  RESTRAINT  =         0.0000
 DV/DL  =        -2.6515
 ------------------------------------------------------------------------------

      A V E R A G E S   O V E R    1000 S T E P S

 NSTEP =  1000000   TIME(PS) =    1000.000  TEMP(K) =   318.89  PRESS =     0.0
 Etot   =        20.0104  EKtot   =         6.6538  EPtot      =        13.3565
 BOND   =         1.6916  ANGLE   =         4.5641  DIHED      =         5.2636
 1-4 NB =         0.3531  1-4 EEL =         5.8773  VDWAALS    =        -0.0001
 EELEC  =        -4.3931  EHBOND  =         0.0000  RESTRAINT  =         0.0000
 DV/DL  =        -2.6380
 ------------------------------------------------------------------------------

      R M S  F L U C T U A T I O N S

 NSTEP =  1000000   TIME(PS) =    1000.000  TEMP(K) =    80.22  PRESS =     0.0
 Etot   =         1.6128  EKtot   =         1.6738  EPtot      =         1.0705
 BOND   =         0.8094  ANGLE   =         0.8265  DIHED      =         0.0596
 1-4 NB =         0.1380  1-4 EEL =         0.0651  VDWAALS    =         0.0000
 EELEC  =         0.0017  EHBOND  =         0.0000  RESTRAINT  =         0.0000
 DV/DL  =         0.1370
 ------------------------------------------------------------------------------

      A V E R A G E S   O V E R    1000 S T E P S

 NSTEP =  1000000   TIME(PS) =    1000.000  TEMP(K) =   318.84  PRESS =     0.0
 Etot   =        20.0093  EKtot   =         6.6528  EPtot      =        13.3565
 BOND   =         1.6916  ANGLE   =         4.5641  DIHED      =         5.2636
 1-4 NB =         0.3531  1-4 EEL =         5.8773  VDWAALS    =        -0.0001
 EELEC  =        -4.3931  EHBOND  =         0.0000  RESTRAINT  =         0.0000
 DV/DL  =        -2.6380
 ------------------------------------------------------------------------------

      R M S  F L U C T U A T I O N S

 NSTEP =  1000000   TIME(PS) =    1000.000  TEMP(K) =    80.47  PRESS =     0.0
 Etot   =         1.6195  EKtot   =         1.6792  EPtot      =         1.0705
 BOND   =         0.8094  ANGLE   =         0.8265  DIHED      =         0.0596
 1-4 NB =         0.1380  1-4 EEL =         0.0651  VDWAALS    =         0.0000
 EELEC  =         0.0017  EHBOND  =         0.0000  RESTRAINT  =         0.0000
 DV/DL  =         0.1370
 ------------------------------------------------------------------------------

      DV/DL, AVERAGES OVER    1000 STEPS

 NSTEP =  1000000   TIME(PS) =    1000.000  TEMP(K) =    80.47  PRESS =     0.0
 Etot   =         0.0000  EKtot   =         0.0000  EPtot      =        -2.6380
 BOND   =        -0.0005  ANGLE   =         0.0008  DIHED      =         0.0000
 1-4 NB =        -0.0001  1-4 EEL =       -10.4464  VDWAALS    =         0.0000
 EELEC  =         7.8082  EHBOND  =         0.0000  RESTRAINT  =         0.0000
 DV/DL  =        -2.6380
 ------------------------------------------------------------------------------

      A V E R A G E S   O V E R 1000000 S T E P S

 NSTEP =  1000000   TIME(PS) =    1000.000  TEMP(K) =   317.35  PRESS =     0.0
 Etot   =        21.1448  EKtot   =         6.6217  EPtot      =        14.5231
 BOND   =         2.2196  ANGLE   =         5.1673  DIHED      =         5.2795
 1-4 NB =         0.3718  1-4 EEL =         5.8776  VDWAALS    =        -0.0001
 EELEC  =        -4.3927  EHBOND  =         0.0000  RESTRAINT  =         0.0000
 DV/DL  =        -2.6393
 ------------------------------------------------------------------------------

      R M S  F L U C T U A T I O N S

 NSTEP =  1000000   TIME(PS) =    1000.000  TEMP(K) =    97.53  PRESS =     0.0
 Etot   =         2.6573  EKtot   =         2.0351  EPtot      =         1.7643
 BOND   =         1.2748  ANGLE   =         1.2008  DIHED      =         0.0877
 1-4 NB =         0.2106  1-4 EEL =         0.0938  VDWAALS    =         0.0000
 EELEC  =         0.0016  EHBOND  =         0.0000  RESTRAINT  =         0.0000
 DV/DL  =         0.1828
 ------------------------------------------------------------------------------

      A V E R A G E S   O V E R 1000000 S T E P S

 NSTEP =  1000000   TIME(PS) =    1000.000  TEMP(K) =   317.36  PRESS =     0.0
 Etot   =        21.1451  EKtot   =         6.6220  EPtot      =        14.5231
 BOND   =         2.2196  ANGLE   =         5.1673  DIHED      =         5.2795
 1-4 NB =         0.3718  1-4 EEL =         5.8776  VDWAALS    =        -0.0001
 EELEC  =        -4.3927  EHBOND  =         0.0000  RESTRAINT  =         0.0000
 DV/DL  =        -2.6393
 ------------------------------------------------------------------------------

      R M S  F L U C T U A T I O N S

 NSTEP =  1000000   TIME(PS) =    1000.000  TEMP(K) =    97.55  PRESS =     0.0
 Etot   =         2.6576  EKtot   =         2.0353  EPtot      =         1.7643
 BOND   =         1.2748  ANGLE   =         1.2008  DIHED      =         0.0877
 1-4 NB =         0.2106  1-4 EEL =         0.0938  VDWAALS    =         0.0000
 EELEC  =         0.0016  EHBOND  =         0.0000  RESTRAINT  =         0.0000
 DV/DL  =         0.1828
 ------------------------------------------------------------------------------

      DV/DL, AVERAGES OVER 1000000 STEPS

 NSTEP =  1000000   TIME(PS) =    1000.000  TEMP(K) =    97.55  PRESS =     0.0
 Etot   =         0.0000  EKtot   =         0.0000  EPtot      =        -2.6393
 BOND   =        -0.0001  ANGLE   =         0.0000  DIHED      =         0.0000
 1-4 NB =         0.0000  1-4 EEL =       -10.4468  VDWAALS    =         0.0000
 EELEC  =         7.8076  EHBOND  =         0.0000  RESTRAINT  =         0.0000
 DV/DL  =        -2.6393
 ------------------------------------------------------------------------------
