-------------------------------------------------------
          Amber 20 PMEMD                              2020
          -------------------------------------------------------

  [-O]verwriting output

File Assignments:

 Here is the input file:

 &cntrl
   nstlim=1000000, nscm=1000,
   ntx=1, irest=0, ntpr=1000,
   tempi=300.0, temp0=300.0, ntt=3, gamma_ln=2.0,
   ntb=1, igb=0, cut=10.0,
   dt=0.001, ig=-1,
   ntc=1, ntf=1,
   iwrap=0,
   ntwr=1000, ntwx=50000, ntave=1000,
   ioutfm=1, ntwv=-1,
   ifsc = 0, icfe=1,
   clambda=0.00922,
   timask1=':1',
   timask2=':2', crgmask = ':2',
/

Note: ig = -1. Setting random seed to   864314 based on wallclock time in
      microseconds.

--------------------------------------------------------------------------------
   1.  RESOURCE   USE:
--------------------------------------------------------------------------------

 getting box info from netcdf restart file
 NATOM  =      14 NTYPES =       6 NBONH =       6 MBONA  =       6
 NTHETH =      12 MTHETA =       6 NPHIH =      24 MPHIA  =       2
 NHPARM =       0 NPARM  =       0 NNB   =      44 NRES   =       2
 NBONA  =       6 NTHETA =       6 NPHIA =       2 NUMBND =       3
 NUMANG =       4 NPTRA  =       3 NATYP =       6 NPHB   =       1
 IFBOX  =       2 NMXRS  =       7 IFCAP =       0 NEXTRA =       0
 NCOPY  =       0

     BOX TYPE: TRUNCATED OCTAHEDRON

--------------------------------------------------------------------------------
   2.  CONTROL  DATA  FOR  THE  RUN
--------------------------------------------------------------------------------

default_name

General flags:
     imin    =       0, nmropt  =       0

Nature and format of input:
     ntx     =       1, irest   =       0, ntrx    =       1

Nature and format of output:
     ntxo    =       2, ntpr    =    1000, ntrx    =       1, ntwr    =    1000
     iwrap   =       0, ntwx    =   50000, ntwv    =      -1, ntwe    =       0
     ioutfm  =       1, ntwprt  =       0, idecomp =       0, rbornstat=      0

Potential function:
     ntf     =       1, ntb     =       1, igb     =       0, nsnb    =      25
     ipol    =       0, gbsa    =       0, iesp    =       0
     dielc   =   1.00000, cut     =  10.00000, intdiel =   1.00000

Frozen or restrained atoms:
     ibelly  =       0, ntr     =       0

Molecular dynamics:
     nstlim  =   1000000, nscm    =      1000, nrespa  =         1
     t       =   0.00000, dt      =   0.00100, vlimit  =  -1.00000

Langevin dynamics temperature regulation:
     ig      =  864314
     temp0   = 300.00000, tempi   = 300.00000, gamma_ln=   2.00000

Free energy options:
     icfe    =       1, ifsc    =       0, klambda =       1
     clambda =  0.0092, scalpha =  0.5000, scbeta  = 12.0000
     sceeorder =       2
     dynlmb =  0.0000 logdvdl =       0

Ewald parameters:
     verbose =       0, ew_type =       0, nbflag  =       1, use_pme =       1
     vdwmeth =       1, eedmeth =       1, netfrc  =       1
     Box X =   66.953   Box Y =   66.953   Box Z =   66.953
     Alpha =  109.471   Beta  =  109.471   Gamma =  109.471
     NFFT1 =   64       NFFT2 =   64       NFFT3 =   64
     Cutoff=   10.000   Tol   =0.100E-04
     Ewald Coefficient =  0.27511
     Interpolation order =    4
     TI Mask 1 :1; matches      7 atoms
     TI Mask 2 :2; matches      7 atoms
     TI region 1:       7 atoms
     TI region 2:       7 atoms
Removing charge of      -0.8188 from atom       8
Removing charge of      -0.8188 from atom       9
Removing charge of       0.8054 from atom      10
Removing charge of      -0.1021 from atom      11
Removing charge of      -0.0219 from atom      12
Removing charge of      -0.0219 from atom      13
Removing charge of      -0.0219 from atom      14
Total charge of  -0.99999900 removed from       7 atoms
     Checking for mismatched coordinates.

--------------------------------------------------------------------------------
   3.  ATOMIC COORDINATES AND VELOCITIES
--------------------------------------------------------------------------------

default_name
 begin time read from input coords =     0.000 ps

 Number of triangulated 3-point waters found:        0

     Sum of charges for TI region  1 =  -0.99999900
     Skip neutralizing charges...

     Sum of charges for TI region  2 =   0.00000000
     Skip neutralizing charges...

--------------------------------------------------------------------------------
   4.  RESULTS
 NSTEP =        0   TIME(PS) =       0.000  TEMP(K) =   224.74  PRESS =     0.0
 Etot   =        15.6203  EKtot   =         4.6893  EPtot      =        10.9311
 BOND   =         0.0430  ANGLE   =         2.8145  DIHED      =         5.2191
 1-4 NB =         0.2759  1-4 EEL =        10.3200  VDWAALS    =        -0.0001
 EELEC  =        -7.7412  EHBOND  =         0.0000  RESTRAINT  =         0.0000
 DV/DL  =        -2.6028
 ------------------------------------------------------------------------------

      A V E R A G E S   O V E R    1000 S T E P S

 NSTEP =     1000   TIME(PS) =       1.000  TEMP(K) =   231.09  PRESS =     0.0
 Etot   =        18.6165  EKtot   =         4.8218  EPtot      =        13.7946
 BOND   =         1.2809  ANGLE   =         4.3556  DIHED      =         5.2513
 1-4 NB =         0.3143  1-4 EEL =        10.3281  VDWAALS    =        -0.0001
 EELEC  =        -7.7355  EHBOND  =         0.0000  RESTRAINT  =         0.0000
 DV/DL  =        -2.6183
 ------------------------------------------------------------------------------

      R M S  F L U C T U A T I O N S

 NSTEP =     1000   TIME(PS) =       1.000  TEMP(K) =    79.77  PRESS =     0.0
 Etot   =         2.2821  EKtot   =         1.6644  EPtot      =         1.1280
 BOND   =         0.6174  ANGLE   =         0.8661  DIHED      =         0.0423
 1-4 NB =         0.1488  1-4 EEL =         0.1147  VDWAALS    =         0.0000
 EELEC  =         0.0021  EHBOND  =         0.0000  RESTRAINT  =         0.0000
 DV/DL  =         0.1284
 ------------------------------------------------------------------------------

      A V E R A G E S   O V E R    1000 S T E P S

 NSTEP =     1000   TIME(PS) =       1.000  TEMP(K) =   231.04  PRESS =     0.0
 Etot   =        18.6154  EKtot   =         4.8208  EPtot      =        13.7946
 BOND   =         1.2809  ANGLE   =         4.3556  DIHED      =         5.2513
 1-4 NB =         0.3143  1-4 EEL =        10.3281  VDWAALS    =        -0.0001
 EELEC  =        -7.7355  EHBOND  =         0.0000  RESTRAINT  =         0.0000
 DV/DL  =        -2.6183
 ------------------------------------------------------------------------------

      R M S  F L U C T U A T I O N S

 NSTEP =     1000   TIME(PS) =       1.000  TEMP(K) =    79.58  PRESS =     0.0
 Etot   =         2.2776  EKtot   =         1.6604  EPtot      =         1.1280
 BOND   =         0.6174  ANGLE   =         0.8661  DIHED      =         0.0423
 1-4 NB =         0.1488  1-4 EEL =         0.1147  VDWAALS    =         0.0000
 EELEC  =         0.0021  EHBOND  =         0.0000  RESTRAINT  =         0.0000
 DV/DL  =         0.1284
 ------------------------------------------------------------------------------

      DV/DL, AVERAGES OVER    1000 STEPS

 NSTEP =     1000   TIME(PS) =       1.000  TEMP(K) =    79.58  PRESS =     0.0
 Etot   =         0.0000  EKtot   =         0.0000  EPtot      =        -2.6183
 BOND   =         0.0003  ANGLE   =        -0.0017  DIHED      =        -0.0000
 1-4 NB =        -0.0000  1-4 EEL =       -10.4243  VDWAALS    =         0.0000
 EELEC  =         7.8075  EHBOND  =         0.0000  RESTRAINT  =         0.0000
 DV/DL  =        -2.6183
 ------------------------------------------------------------------------------

      A V E R A G E S   O V E R    1000 S T E P S

 NSTEP =     2000   TIME(PS) =       2.000  TEMP(K) =   292.36  PRESS =     0.0
 Etot   =        20.5865  EKtot   =         6.1002  EPtot      =        14.4863
 BOND   =         1.3588  ANGLE   =         4.9535  DIHED      =         5.2589
 1-4 NB =         0.3185  1-4 EEL =        10.3318  VDWAALS    =        -0.0001
 EELEC  =        -7.7352  EHBOND  =         0.0000  RESTRAINT  =         0.0000
 DV/DL  =        -2.6172
 ------------------------------------------------------------------------------

      R M S  F L U C T U A T I O N S

 NSTEP =     2000   TIME(PS) =       2.000  TEMP(K) =    66.13  PRESS =     0.0
 Etot   =         2.0237  EKtot   =         1.3799  EPtot      =         1.5035
 BOND   =         0.6924  ANGLE   =         1.2283  DIHED      =         0.0555
 1-4 NB =         0.1286  1-4 EEL =         0.1037  VDWAALS    =         0.0000
 EELEC  =         0.0030  EHBOND  =         0.0000  RESTRAINT  =         0.0000
 DV/DL  =         0.1201
 ------------------------------------------------------------------------------

      A V E R A G E S   O V E R    1000 S T E P S

 NSTEP =     2000   TIME(PS) =       2.000  TEMP(K) =   292.67  PRESS =     0.0
 Etot   =        20.5930  EKtot   =         6.1067  EPtot      =        14.4863
 BOND   =         1.3588  ANGLE   =         4.9535  DIHED      =         5.2589
 1-4 NB =         0.3185  1-4 EEL =        10.3318  VDWAALS    =        -0.0001
 EELEC  =        -7.7352  EHBOND  =         0.0000  RESTRAINT  =         0.0000
 DV/DL  =        -2.6172
 ------------------------------------------------------------------------------

      R M S  F L U C T U A T I O N S

 NSTEP =     2000   TIME(PS) =       2.000  TEMP(K) =    66.23  PRESS =     0.0
 Etot   =         2.0238  EKtot   =         1.3820  EPtot      =         1.5035
 BOND   =         0.6924  ANGLE   =         1.2283  DIHED      =         0.0555
 1-4 NB =         0.1286  1-4 EEL =         0.1037  VDWAALS    =         0.0000
 EELEC  =         0.0030  EHBOND  =         0.0000  RESTRAINT  =         0.0000
 DV/DL  =         0.1201
 ------------------------------------------------------------------------------

      DV/DL, AVERAGES OVER    1000 STEPS

 NSTEP =     2000   TIME(PS) =       2.000  TEMP(K) =    66.23  PRESS =     0.0
 Etot   =         0.0000  EKtot   =         0.0000  EPtot      =        -2.6172
 BOND   =         0.0024  ANGLE   =         0.0011  DIHED      =         0.0000
 1-4 NB =        -0.0000  1-4 EEL =       -10.4279  VDWAALS    =         0.0000
 EELEC  =         7.8071  EHBOND  =         0.0000  RESTRAINT  =         0.0000
 DV/DL  =        -2.6172
 ------------------------------------------------------------------------------

      A V E R A G E S   O V E R    1000 S T E P S

 NSTEP =  1000000   TIME(PS) =    1000.000  TEMP(K) =   381.39  PRESS =     0.0
 Etot   =        24.2330  EKtot   =         7.9579  EPtot      =        16.2751
 BOND   =         2.6602  ANGLE   =         5.2609  DIHED      =         5.3709
 1-4 NB =         0.3681  1-4 EEL =        10.3511  VDWAALS    =        -0.0001
 EELEC  =        -7.7361  EHBOND  =         0.0000  RESTRAINT  =         0.0000
 DV/DL  =        -2.6402
 ------------------------------------------------------------------------------

      R M S  F L U C T U A T I O N S

 NSTEP =  1000000   TIME(PS) =    1000.000  TEMP(K) =   102.57  PRESS =     0.0
 Etot   =         2.5085  EKtot   =         2.1402  EPtot      =         1.6976
 BOND   =         1.2969  ANGLE   =         1.0472  DIHED      =         0.1488
 1-4 NB =         0.2291  1-4 EEL =         0.1840  VDWAALS    =         0.0000
 EELEC  =         0.0029  EHBOND  =         0.0000  RESTRAINT  =         0.0000
 DV/DL  =         0.2061
 ------------------------------------------------------------------------------

      A V E R A G E S   O V E R    1000 S T E P S

 NSTEP =  1000000   TIME(PS) =    1000.000  TEMP(K) =   381.32  PRESS =     0.0
 Etot   =        24.2316  EKtot   =         7.9565  EPtot      =        16.2751
 BOND   =         2.6602  ANGLE   =         5.2609  DIHED      =         5.3709
 1-4 NB =         0.3681  1-4 EEL =        10.3511  VDWAALS    =        -0.0001
 EELEC  =        -7.7361  EHBOND  =         0.0000  RESTRAINT  =         0.0000
 DV/DL  =        -2.6402
 ------------------------------------------------------------------------------

      R M S  F L U C T U A T I O N S

 NSTEP =  1000000   TIME(PS) =    1000.000  TEMP(K) =   102.65  PRESS =     0.0
 Etot   =         2.5108  EKtot   =         2.1418  EPtot      =         1.6976
 BOND   =         1.2969  ANGLE   =         1.0472  DIHED      =         0.1488
 1-4 NB =         0.2291  1-4 EEL =         0.1840  VDWAALS    =         0.0000
 EELEC  =         0.0029  EHBOND  =         0.0000  RESTRAINT  =         0.0000
 DV/DL  =         0.2061
 ------------------------------------------------------------------------------

      DV/DL, AVERAGES OVER    1000 STEPS

 NSTEP =  1000000   TIME(PS) =    1000.000  TEMP(K) =   102.65  PRESS =     0.0
 Etot   =         0.0000  EKtot   =         0.0000  EPtot      =        -2.6402
 BOND   =        -0.0018  ANGLE   =         0.0010  DIHED      =         0.0000
 1-4 NB =        -0.0000  1-4 EEL =       -10.4475  VDWAALS    =         0.0000
 EELEC  =         7.8081  EHBOND  =         0.0000  RESTRAINT  =         0.0000
 DV/DL  =        -2.6402
 ------------------------------------------------------------------------------

      A V E R A G E S   O V E R 1000000 S T E P S

 NSTEP =  1000000   TIME(PS) =    1000.000  TEMP(K) =   302.17  PRESS =     0.0
 Etot   =        21.5649  EKtot   =         6.3049  EPtot      =        15.2600
 BOND   =         1.9602  ANGLE   =         5.0756  DIHED      =         5.2789
 1-4 NB =         0.3502  1-4 EEL =        10.3309  VDWAALS    =        -0.0001
 EELEC  =        -7.7356  EHBOND  =         0.0000  RESTRAINT  =         0.0000
 DV/DL  =        -2.6196
 ------------------------------------------------------------------------------

      R M S  F L U C T U A T I O N S

 NSTEP =  1000000   TIME(PS) =    1000.000  TEMP(K) =    92.98  PRESS =     0.0
 Etot   =         2.5544  EKtot   =         1.9401  EPtot      =         1.6438
 BOND   =         1.1292  ANGLE   =         1.1745  DIHED      =         0.0869
 1-4 NB =         0.2020  1-4 EEL =         0.1640  VDWAALS    =         0.0000
 EELEC  =         0.0028  EHBOND  =         0.0000  RESTRAINT  =         0.0000
 DV/DL  =         0.1793
 ------------------------------------------------------------------------------

      A V E R A G E S   O V E R 1000000 S T E P S

 NSTEP =  1000000   TIME(PS) =    1000.000  TEMP(K) =   302.17  PRESS =     0.0
 Etot   =        21.5649  EKtot   =         6.3048  EPtot      =        15.2600
 BOND   =         1.9602  ANGLE   =         5.0756  DIHED      =         5.2789
 1-4 NB =         0.3502  1-4 EEL =        10.3309  VDWAALS    =        -0.0001
 EELEC  =        -7.7356  EHBOND  =         0.0000  RESTRAINT  =         0.0000
 DV/DL  =        -2.6196
 ------------------------------------------------------------------------------

      R M S  F L U C T U A T I O N S

 NSTEP =  1000000   TIME(PS) =    1000.000  TEMP(K) =    92.99  PRESS =     0.0
 Etot   =         2.5545  EKtot   =         1.9402  EPtot      =         1.6438
 BOND   =         1.1292  ANGLE   =         1.1745  DIHED      =         0.0869
 1-4 NB =         0.2020  1-4 EEL =         0.1640  VDWAALS    =         0.0000
 EELEC  =         0.0028  EHBOND  =         0.0000  RESTRAINT  =         0.0000
 DV/DL  =         0.1793
 ------------------------------------------------------------------------------

      DV/DL, AVERAGES OVER 1000000 STEPS

 NSTEP =  1000000   TIME(PS) =    1000.000  TEMP(K) =    92.99  PRESS =     0.0
 Etot   =         0.0000  EKtot   =         0.0000  EPtot      =        -2.6196
 BOND   =        -0.0001  ANGLE   =        -0.0001  DIHED      =         0.0000
 1-4 NB =         0.0000  1-4 EEL =       -10.4270  VDWAALS    =         0.0000
 EELEC  =         7.8076  EHBOND  =         0.0000  RESTRAINT  =         0.0000
 DV/DL  =        -2.6196
 ------------------------------------------------------------------------------
