-------------------------------------------------------
          Amber 20 PMEMD                              2020
          -------------------------------------------------------

  [-O]verwriting output

File Assignments:

 Here is the input file:

 &cntrl
   nstlim=4000000, nscm=1000,
   ntx=5, irest=1, ntpr=1000,
   tempi=300.0, temp0=300.0, ntt=3, gamma_ln=2.0,
   ntb=1, igb=0, cut=10.0,
   dt=0.001, ig=-1,
   ntc=1, ntf=1,
   iwrap=0,
   ntwr=1000, ntwx=50000, ntave=1000,
   ioutfm=1, ntwv=-1,
   ifsc = 0, icfe=1,
   clambda=0.00922,
   timask1=':1',
   timask2=':2', crgmask = ':2',
/

Note: ig = -1. Setting random seed to   699415 based on wallclock time in
      microseconds.

--------------------------------------------------------------------------------
   1.  RESOURCE   USE:
--------------------------------------------------------------------------------

 getting box info from netcdf restart file
 NATOM  =      14 NTYPES =       6 NBONH =       6 MBONA  =       6
 NTHETH =      12 MTHETA =       6 NPHIH =      24 MPHIA  =       2
 NHPARM =       0 NPARM  =       0 NNB   =      44 NRES   =       2
 NBONA  =       6 NTHETA =       6 NPHIA =       2 NUMBND =       3
 NUMANG =       4 NPTRA  =       3 NATYP =       6 NPHB   =       1
 IFBOX  =       2 NMXRS  =       7 IFCAP =       0 NEXTRA =       0
 NCOPY  =       0

     BOX TYPE: TRUNCATED OCTAHEDRON

--------------------------------------------------------------------------------
   2.  CONTROL  DATA  FOR  THE  RUN
--------------------------------------------------------------------------------

default_name

General flags:
     imin    =       0, nmropt  =       0

Nature and format of input:
     ntx     =       5, irest   =       1, ntrx    =       1

Nature and format of output:
     ntxo    =       2, ntpr    =    1000, ntrx    =       1, ntwr    =    1000
     iwrap   =       0, ntwx    =   50000, ntwv    =      -1, ntwe    =       0
     ioutfm  =       1, ntwprt  =       0, idecomp =       0, rbornstat=      0

Potential function:
     ntf     =       1, ntb     =       1, igb     =       0, nsnb    =      25
     ipol    =       0, gbsa    =       0, iesp    =       0
     dielc   =   1.00000, cut     =  10.00000, intdiel =   1.00000

Frozen or restrained atoms:
     ibelly  =       0, ntr     =       0

Molecular dynamics:
     nstlim  =   4000000, nscm    =      1000, nrespa  =         1
     t       =   0.00000, dt      =   0.00100, vlimit  =  -1.00000

Langevin dynamics temperature regulation:
     ig      =  699415
     temp0   = 300.00000, tempi   = 300.00000, gamma_ln=   2.00000

Free energy options:
     icfe    =       1, ifsc    =       0, klambda =       1
     clambda =  0.0092, scalpha =  0.5000, scbeta  = 12.0000
     sceeorder =       2
     dynlmb =  0.0000 logdvdl =       0

Ewald parameters:
     verbose =       0, ew_type =       0, nbflag  =       1, use_pme =       1
     vdwmeth =       1, eedmeth =       1, netfrc  =       1
     Box X =   66.953   Box Y =   66.953   Box Z =   66.953
     Alpha =  109.471   Beta  =  109.471   Gamma =  109.471
     NFFT1 =   64       NFFT2 =   64       NFFT3 =   64
     Cutoff=   10.000   Tol   =0.100E-04
     Ewald Coefficient =  0.27511
     Interpolation order =    4
     TI Mask 1 :1; matches      7 atoms
     TI Mask 2 :2; matches      7 atoms
     TI region 1:       7 atoms
     TI region 2:       7 atoms
Removing charge of      -0.8188 from atom       8
Removing charge of      -0.8188 from atom       9
Removing charge of       0.8054 from atom      10
Removing charge of      -0.1021 from atom      11
Removing charge of      -0.0219 from atom      12
Removing charge of      -0.0219 from atom      13
Removing charge of      -0.0219 from atom      14
Total charge of  -0.99999900 removed from       7 atoms
     Checking for mismatched coordinates.
     WARNING: Local coordinate       1 differs from partner coordinate       8 !
     Deviation is small, changing partner coordinate.
     WARNING: Local coordinate       1 differs from partner coordinate       8 !
     Deviation is small, changing partner coordinate.
     WARNING: Local coordinate       1 differs from partner coordinate       8 !
     Deviation is small, changing partner coordinate.
     WARNING: Local coordinate       2 differs from partner coordinate       9 !
     Deviation is small, changing partner coordinate.
     WARNING: Local coordinate       2 differs from partner coordinate       9 !
     Deviation is small, changing partner coordinate.
     WARNING: Local coordinate       2 differs from partner coordinate       9 !
     Deviation is small, changing partner coordinate.
     WARNING: Local coordinate       3 differs from partner coordinate      10 !
     Deviation is small, changing partner coordinate.
     WARNING: Local coordinate       3 differs from partner coordinate      10 !
     Deviation is small, changing partner coordinate.
     WARNING: Local coordinate       3 differs from partner coordinate      10 !
     Deviation is small, changing partner coordinate.
     ... making more adjustments ...
     A total of      21 small coordinate adjustments were made, check results carefully.

--------------------------------------------------------------------------------
   3.  ATOMIC COORDINATES AND VELOCITIES
--------------------------------------------------------------------------------

default_name
 begin time read from input coords =  1000.000 ps

 Number of triangulated 3-point waters found:        0

     Sum of charges for TI region  1 =  -0.99999900
     Skip neutralizing charges...

     Sum of charges for TI region  2 =   0.00000000
     Skip neutralizing charges...

--------------------------------------------------------------------------------
   4.  RESULTS
 NSTEP =     1000   TIME(PS) =    1001.000  TEMP(K) =   290.30  PRESS =     0.0
 Etot   =        21.2049  EKtot   =         6.0572  EPtot      =        15.1477
 BOND   =         2.9916  ANGLE   =         3.6022  DIHED      =         5.2747
 1-4 NB =         0.5112  1-4 EEL =        10.5032  VDWAALS    =        -0.0001
 EELEC  =        -7.7351  EHBOND  =         0.0000  RESTRAINT  =         0.0000
 DV/DL  =        -2.8218
 ------------------------------------------------------------------------------

      A V E R A G E S   O V E R    1000 S T E P S

 NSTEP =     1000   TIME(PS) =    1001.000  TEMP(K) =   272.93  PRESS =     0.0
 Etot   =        21.1616  EKtot   =         5.6948  EPtot      =        15.4668
 BOND   =         1.8425  ANGLE   =         5.2937  DIHED      =         5.3690
 1-4 NB =         0.3537  1-4 EEL =        10.3438  VDWAALS    =        -0.0001
 EELEC  =        -7.7359  EHBOND  =         0.0000  RESTRAINT  =         0.0000
 DV/DL  =        -2.6306
 ------------------------------------------------------------------------------

      R M S  F L U C T U A T I O N S

 NSTEP =     1000   TIME(PS) =    1001.000  TEMP(K) =    81.82  PRESS =     0.0
 Etot   =         1.9265  EKtot   =         1.7072  EPtot      =         1.5247
 BOND   =         1.0432  ANGLE   =         1.1517  DIHED      =         0.1436
 1-4 NB =         0.1991  1-4 EEL =         0.1716  VDWAALS    =         0.0000
 EELEC  =         0.0028  EHBOND  =         0.0000  RESTRAINT  =         0.0000
 DV/DL  =         0.1847
 ------------------------------------------------------------------------------

      A V E R A G E S   O V E R    1000 S T E P S

 NSTEP =     1000   TIME(PS) =    1001.000  TEMP(K) =   272.95  PRESS =     0.0
 Etot   =        21.1619  EKtot   =         5.6952  EPtot      =        15.4668
 BOND   =         1.8425  ANGLE   =         5.2937  DIHED      =         5.3690
 1-4 NB =         0.3537  1-4 EEL =        10.3438  VDWAALS    =        -0.0001
 EELEC  =        -7.7359  EHBOND  =         0.0000  RESTRAINT  =         0.0000
 DV/DL  =        -2.6306
 ------------------------------------------------------------------------------

      R M S  F L U C T U A T I O N S

 NSTEP =     1000   TIME(PS) =    1001.000  TEMP(K) =    81.68  PRESS =     0.0
 Etot   =         1.9268  EKtot   =         1.7043  EPtot      =         1.5247
 BOND   =         1.0432  ANGLE   =         1.1517  DIHED      =         0.1436
 1-4 NB =         0.1991  1-4 EEL =         0.1716  VDWAALS    =         0.0000
 EELEC  =         0.0028  EHBOND  =         0.0000  RESTRAINT  =         0.0000
 DV/DL  =         0.1847
 ------------------------------------------------------------------------------

      DV/DL, AVERAGES OVER    1000 STEPS

 NSTEP =     1000   TIME(PS) =    1001.000  TEMP(K) =    81.68  PRESS =     0.0
 Etot   =         0.0000  EKtot   =         0.0000  EPtot      =        -2.6306
 BOND   =         0.0013  ANGLE   =         0.0002  DIHED      =        -0.0000
 1-4 NB =         0.0002  1-4 EEL =       -10.4401  VDWAALS    =         0.0000
 EELEC  =         7.8079  EHBOND  =         0.0000  RESTRAINT  =         0.0000
 DV/DL  =        -2.6306
 ------------------------------------------------------------------------------

      A V E R A G E S   O V E R    1000 S T E P S

 NSTEP =     2000   TIME(PS) =    1002.000  TEMP(K) =   263.94  PRESS =     0.0
 Etot   =        20.6686  EKtot   =         5.5072  EPtot      =        15.1614
 BOND   =         2.3085  ANGLE   =         4.6192  DIHED      =         5.2884
 1-4 NB =         0.3455  1-4 EEL =        10.3348  VDWAALS    =        -0.0001
 EELEC  =        -7.7349  EHBOND  =         0.0000  RESTRAINT  =         0.0000
 DV/DL  =        -2.6247
 ------------------------------------------------------------------------------

      R M S  F L U C T U A T I O N S

 NSTEP =     2000   TIME(PS) =    1002.000  TEMP(K) =    66.05  PRESS =     0.0
 Etot   =         1.2732  EKtot   =         1.3782  EPtot      =         1.2915
 BOND   =         1.0791  ANGLE   =         0.7329  DIHED      =         0.0834
 1-4 NB =         0.1648  1-4 EEL =         0.1609  VDWAALS    =         0.0000
 EELEC  =         0.0026  EHBOND  =         0.0000  RESTRAINT  =         0.0000
 DV/DL  =         0.1800
 ------------------------------------------------------------------------------

      A V E R A G E S   O V E R    1000 S T E P S

 NSTEP =     2000   TIME(PS) =    1002.000  TEMP(K) =   263.91  PRESS =     0.0
 Etot   =        20.6680  EKtot   =         5.5067  EPtot      =        15.1614
 BOND   =         2.3085  ANGLE   =         4.6192  DIHED      =         5.2884
 1-4 NB =         0.3455  1-4 EEL =        10.3348  VDWAALS    =        -0.0001
 EELEC  =        -7.7349  EHBOND  =         0.0000  RESTRAINT  =         0.0000
 DV/DL  =        -2.6247
 ------------------------------------------------------------------------------

      R M S  F L U C T U A T I O N S

 NSTEP =     2000   TIME(PS) =    1002.000  TEMP(K) =    66.12  PRESS =     0.0
 Etot   =         1.2740  EKtot   =         1.3797  EPtot      =         1.2915
 BOND   =         1.0791  ANGLE   =         0.7329  DIHED      =         0.0834
 1-4 NB =         0.1648  1-4 EEL =         0.1609  VDWAALS    =         0.0000
 EELEC  =         0.0026  EHBOND  =         0.0000  RESTRAINT  =         0.0000
 DV/DL  =         0.1800
 ------------------------------------------------------------------------------

      DV/DL, AVERAGES OVER    1000 STEPS

 NSTEP =     2000   TIME(PS) =    1002.000  TEMP(K) =    66.12  PRESS =     0.0
 Etot   =         0.0000  EKtot   =         0.0000  EPtot      =        -2.6247
 BOND   =        -0.0025  ANGLE   =         0.0021  DIHED      =         0.0000
 1-4 NB =        -0.0002  1-4 EEL =       -10.4309  VDWAALS    =         0.0000
 EELEC  =         7.8069  EHBOND  =         0.0000  RESTRAINT  =         0.0000
 DV/DL  =        -2.6247
 ------------------------------------------------------------------------------

      A V E R A G E S   O V E R    1000 S T E P S

 NSTEP =   523000   TIME(PS) =    1523.000  TEMP(K) =   319.07  PRESS =     0.0
 Etot   =        22.0559  EKtot   =         6.6575  EPtot      =        15.3983
 BOND   =         2.1367  ANGLE   =         5.0403  DIHED      =         5.2534
 1-4 NB =         0.3784  1-4 EEL =        10.3246  VDWAALS    =        -0.0001
 EELEC  =        -7.7350  EHBOND  =         0.0000  RESTRAINT  =         0.0000
 DV/DL  =        -2.6150
 ------------------------------------------------------------------------------

      R M S  F L U C T U A T I O N S

 NSTEP =   523000   TIME(PS) =    1523.000  TEMP(K) =    73.35  PRESS =     0.0
 Etot   =         1.3613  EKtot   =         1.5305  EPtot      =         1.2366
 BOND   =         0.9845  ANGLE   =         0.9311  DIHED      =         0.0445
 1-4 NB =         0.2647  1-4 EEL =         0.1992  VDWAALS    =         0.0000
 EELEC  =         0.0021  EHBOND  =         0.0000  RESTRAINT  =         0.0000
 DV/DL  =         0.2140
 ------------------------------------------------------------------------------

      A V E R A G E S   O V E R    1000 S T E P S

 NSTEP =   523000   TIME(PS) =    1523.000  TEMP(K) =   318.89  PRESS =     0.0
 Etot   =        22.0521  EKtot   =         6.6537  EPtot      =        15.3983
 BOND   =         2.1367  ANGLE   =         5.0403  DIHED      =         5.2534
 1-4 NB =         0.3784  1-4 EEL =        10.3246  VDWAALS    =        -0.0001
 EELEC  =        -7.7350  EHBOND  =         0.0000  RESTRAINT  =         0.0000
 DV/DL  =        -2.6150
 ------------------------------------------------------------------------------

      R M S  F L U C T U A T I O N S

 NSTEP =   523000   TIME(PS) =    1523.000  TEMP(K) =    73.45  PRESS =     0.0
 Etot   =         1.3655  EKtot   =         1.5326  EPtot      =         1.2366
 BOND   =         0.9845  ANGLE   =         0.9311  DIHED      =         0.0445
 1-4 NB =         0.2647  1-4 EEL =         0.1992  VDWAALS    =         0.0000
 EELEC  =         0.0021  EHBOND  =         0.0000  RESTRAINT  =         0.0000
 DV/DL  =         0.2140
 ------------------------------------------------------------------------------

      DV/DL, AVERAGES OVER    1000 STEPS

 NSTEP =   523000   TIME(PS) =    1523.000  TEMP(K) =    73.45  PRESS =     0.0
 Etot   =         0.0000  EKtot   =         0.0000  EPtot      =        -2.6150
 BOND   =        -0.0026  ANGLE   =         0.0014  DIHED      =         0.0000
 1-4 NB =        -0.0000  1-4 EEL =       -10.4207  VDWAALS    =         0.0000
 EELEC  =         7.8069  EHBOND  =         0.0000  RESTRAINT  =         0.0000
 DV/DL  =        -2.6150
 ------------------------------------------------------------------------------

      A V E R A G E S   O V E R    1000 S T E P S

 NSTEP =   524000   TIME(PS) =    1524.000  TEMP(K) =   364.01  PRESS =     0.0
 Etot   =        23.5506  EKtot   =         7.5953  EPtot      =        15.9552
 BOND   =         2.1500  ANGLE   =         5.5448  DIHED      =         5.2812
 1-4 NB =         0.3771  1-4 EEL =        10.3380  VDWAALS    =        -0.0001
 EELEC  =        -7.7358  EHBOND  =         0.0000  RESTRAINT  =         0.0000
 DV/DL  =        -2.6245
 ------------------------------------------------------------------------------

      R M S  F L U C T U A T I O N S

 NSTEP =   524000   TIME(PS) =    1524.000  TEMP(K) =    84.29  PRESS =     0.0
 Etot   =         1.9358  EKtot   =         1.7588  EPtot      =         1.5888
 BOND   =         0.9671  ANGLE   =         1.4581  DIHED      =         0.0850
 1-4 NB =         0.2538  1-4 EEL =         0.1789  VDWAALS    =         0.0000
 EELEC  =         0.0026  EHBOND  =         0.0000  RESTRAINT  =         0.0000
 DV/DL  =         0.1909
 ------------------------------------------------------------------------------

      A V E R A G E S   O V E R    1000 S T E P S

 NSTEP =   524000   TIME(PS) =    1524.000  TEMP(K) =   363.96  PRESS =     0.0
 Etot   =        23.5494  EKtot   =         7.5942  EPtot      =        15.9552
 BOND   =         2.1500  ANGLE   =         5.5448  DIHED      =         5.2812
 1-4 NB =         0.3771  1-4 EEL =        10.3380  VDWAALS    =        -0.0001
 EELEC  =        -7.7358  EHBOND  =         0.0000  RESTRAINT  =         0.0000
 DV/DL  =        -2.6245
 ------------------------------------------------------------------------------

      R M S  F L U C T U A T I O N S

 NSTEP =   524000   TIME(PS) =    1524.000  TEMP(K) =    84.33  PRESS =     0.0
 Etot   =         1.9355  EKtot   =         1.7597  EPtot      =         1.5888
 BOND   =         0.9671  ANGLE   =         1.4581  DIHED      =         0.0850
 1-4 NB =         0.2538  1-4 EEL =         0.1789  VDWAALS    =         0.0000
 EELEC  =         0.0026  EHBOND  =         0.0000  RESTRAINT  =         0.0000
 DV/DL  =         0.1909
 ------------------------------------------------------------------------------

      DV/DL, AVERAGES OVER    1000 STEPS

 NSTEP =   524000   TIME(PS) =    1524.000  TEMP(K) =    84.33  PRESS =     0.0
 Etot   =         0.0000  EKtot   =         0.0000  EPtot      =        -2.6245
 BOND   =         0.0003  ANGLE   =         0.0017  DIHED      =         0.0000
 1-4 NB =        -0.0000  1-4 EEL =       -10.4342  VDWAALS    =         0.0000
 EELEC  =         7.8078  EHBOND  =         0.0000  RESTRAINT  =         0.0000
 DV/DL  =        -2.6245
 ------------------------------------------------------------------------------
