-------------------------------------------------------
          Amber 20 PMEMD                              2020
          -------------------------------------------------------

  [-O]verwriting output

File Assignments:

 Here is the input file:

 &cntrl
   nstlim=500000, nscm=1000,
   ntx=5, irest=1, ntpr=1000,
   tempi=300.0, temp0=300.0, ntt=3, gamma_ln=2.0,
   ntp=1, pres0=1.01325, taup=5.0,
   ntb=2, igb=0, cut=10.0,
   dt=0.002, ig=-1,
   ntc=2, ntf=2,
   iwrap=0,
   ntwr=1000, ntwx=50000, ntave=1000,
   ioutfm=1, ntwv=-1,
   ifsc = 0, icfe=1,
   clambda=0.11505,
   timask1=':1',
   timask2=':2', crgmask = ':2',
/

Note: ig = -1. Setting random seed to   336248 based on wallclock time in
      microseconds.

--------------------------------------------------------------------------------
   1.  RESOURCE   USE:
--------------------------------------------------------------------------------

 getting box info from netcdf restart file
 NATOM  =   20855 NTYPES =       6 NBONH =   20847 MBONA  =       6
 NTHETH =      12 MTHETA =       6 NPHIH =      24 MPHIA  =       2
 NHPARM =       0 NPARM  =       0 NNB   =   27832 NRES   =    6949
 NBONA  =       6 NTHETA =       6 NPHIA =       2 NUMBND =       5
 NUMANG =       4 NPTRA  =       3 NATYP =       6 NPHB   =       1
 IFBOX  =       2 NMXRS  =       7 IFCAP =       0 NEXTRA =       0
 NCOPY  =       0

     BOX TYPE: TRUNCATED OCTAHEDRON

--------------------------------------------------------------------------------
   2.  CONTROL  DATA  FOR  THE  RUN
--------------------------------------------------------------------------------

default_name

General flags:
     imin    =       0, nmropt  =       0

Nature and format of input:
     ntx     =       5, irest   =       1, ntrx    =       1

Nature and format of output:
     ntxo    =       2, ntpr    =    1000, ntrx    =       1, ntwr    =    1000
     iwrap   =       0, ntwx    =   50000, ntwv    =      -1, ntwe    =       0
     ioutfm  =       1, ntwprt  =       0, idecomp =       0, rbornstat=      0

Potential function:
     ntf     =       2, ntb     =       2, igb     =       0, nsnb    =      25
     ipol    =       0, gbsa    =       0, iesp    =       0
     dielc   =   1.00000, cut     =  10.00000, intdiel =   1.00000

Frozen or restrained atoms:
     ibelly  =       0, ntr     =       0

Molecular dynamics:
     nstlim  =    500000, nscm    =      1000, nrespa  =         1
     t       =   0.00000, dt      =   0.00200, vlimit  =  -1.00000

Langevin dynamics temperature regulation:
     ig      =  336248
     temp0   = 300.00000, tempi   = 300.00000, gamma_ln=   2.00000

Pressure regulation:
     ntp     =       1
     pres0   =   1.01325, comp    =  44.60000, taup    =   5.00000

SHAKE:
     ntc     =       2, jfastw  =       0
     tol     =   0.00001

Free energy options:
     icfe    =       1, ifsc    =       0, klambda =       1
     clambda =  0.1150, scalpha =  0.5000, scbeta  = 12.0000
     sceeorder =       2
     dynlmb =  0.0000 logdvdl =       0

Ewald parameters:
     verbose =       0, ew_type =       0, nbflag  =       1, use_pme =       1
     vdwmeth =       1, eedmeth =       1, netfrc  =       1
     Box X =   66.953   Box Y =   66.953   Box Z =   66.953
     Alpha =  109.471   Beta  =  109.471   Gamma =  109.471
     NFFT1 =   64       NFFT2 =   64       NFFT3 =   64
     Cutoff=   10.000   Tol   =0.100E-04
     Ewald Coefficient =  0.27511
     Interpolation order =    4
     TI Mask 1 :1; matches      7 atoms
     TI Mask 2 :2; matches      7 atoms
     TI region 1:   20848 atoms
     TI region 2:   20848 atoms
Removing charge of      -0.8188 from atom       8
Removing charge of      -0.8188 from atom       9
Removing charge of       0.8054 from atom      10
Removing charge of      -0.1021 from atom      11
Removing charge of      -0.0219 from atom      12
Removing charge of      -0.0219 from atom      13
Removing charge of      -0.0219 from atom      14
Total charge of  -0.99999900 removed from       7 atoms
     Checking for mismatched coordinates.

--------------------------------------------------------------------------------
   3.  ATOMIC COORDINATES AND VELOCITIES
--------------------------------------------------------------------------------

default_name
 begin time read from input coords =   200.000 ps

 Number of triangulated 3-point waters found:     6947

     Sum of charges for TI region  1 =  -0.99999900
     Skip neutralizing charges...

     Sum of charges for TI region  2 =   0.00000000
     Skip neutralizing charges...

--------------------------------------------------------------------------------
   4.  RESULTS
 NSTEP =     1000   TIME(PS) =     202.000  TEMP(K) =   297.88  PRESS =  -788.0
 Etot   =    -52890.5884  EKtot   =     12342.0210  EPtot      =    -65232.6093
 BOND   =         0.4072  ANGLE   =         4.0240  DIHED      =         5.4267
 1-4 NB =         0.3799  1-4 EEL =         9.3177  VDWAALS    =      9404.4600
 EELEC  =    -74656.6248  EHBOND  =         0.0000  RESTRAINT  =         0.0000
 EKCMT  =      6139.3067  VIRIAL  =     10018.7573  VOLUME     =    228005.4841
                                                    Density    =         0.9120
 DV/DL  =       152.7670
 ------------------------------------------------------------------------------

      A V E R A G E S   O V E R    1000 S T E P S

 NSTEP =     1000   TIME(PS) =     202.000  TEMP(K) =   299.74  PRESS =  -740.2
 Etot   =    -52845.4168  EKtot   =     12419.2056  EPtot      =    -65264.6225
 BOND   =         0.8716  ANGLE   =         4.9877  DIHED      =         5.2982
 1-4 NB =         0.3337  1-4 EEL =         9.2260  VDWAALS    =      9549.8500
 EELEC  =    -74835.1897  EHBOND  =         0.0000  RESTRAINT  =         0.0000
 EKCMT  =      6205.3112  VIRIAL  =      9873.3549  VOLUME     =    229462.8372
                                                    Density    =         0.9062
 DV/DL  =       151.9242
 ------------------------------------------------------------------------------

      R M S  F L U C T U A T I O N S

 NSTEP =     1000   TIME(PS) =     202.000  TEMP(K) =     1.88  PRESS =   116.9
 Etot   =        66.4163  EKtot   =        77.9179  EPtot      =        82.0592
 BOND   =         0.6598  ANGLE   =         1.0730  DIHED      =         0.1011
 1-4 NB =         0.1754  1-4 EEL =         0.1335  VDWAALS    =       106.9425
 EELEC  =       143.1504  EHBOND  =         0.0000  RESTRAINT  =         0.0000
 EKCMT  =        59.9264  VIRIAL  =       564.9441  VOLUME     =       861.7348
                                                    Density    =         0.0034
 DV/DL  =        10.1278
 ------------------------------------------------------------------------------

      A V E R A G E S   O V E R    1000 S T E P S

 NSTEP =     1000   TIME(PS) =     202.000  TEMP(K) =   299.74  PRESS =  -740.2
 Etot   =    -52845.4168  EKtot   =     12419.2056  EPtot      =    -65264.6225
 BOND   =         0.8716  ANGLE   =         4.9877  DIHED      =         5.2982
 1-4 NB =         0.3337  1-4 EEL =         9.2260  VDWAALS    =      9549.8500
 EELEC  =    -74835.1897  EHBOND  =         0.0000  RESTRAINT  =         0.0000
 EKCMT  =      6205.3112  VIRIAL  =      9873.3549  VOLUME     =    229462.8372
                                                    Density    =         0.9062
 DV/DL  =       151.9242
 ------------------------------------------------------------------------------

      R M S  F L U C T U A T I O N S

 NSTEP =     1000   TIME(PS) =     202.000  TEMP(K) =     1.88  PRESS =   116.9
 Etot   =        66.4163  EKtot   =        77.9179  EPtot      =        82.0592
 BOND   =         0.6598  ANGLE   =         1.0730  DIHED      =         0.1011
 1-4 NB =         0.1754  1-4 EEL =         0.1335  VDWAALS    =       106.9425
 EELEC  =       143.1504  EHBOND  =         0.0000  RESTRAINT  =         0.0000
 EKCMT  =        59.9264  VIRIAL  =       564.9441  VOLUME     =       861.7348
                                                    Density    =         0.0034
 DV/DL  =        10.1278
 ------------------------------------------------------------------------------

      DV/DL, AVERAGES OVER    1000 STEPS

 NSTEP =     1000   TIME(PS) =     202.000  TEMP(K) =     1.88  PRESS =     0.0
 Etot   =         0.0000  EKtot   =         0.0000  EPtot      =       151.9242
 BOND   =         0.0000  ANGLE   =         0.0000  DIHED      =         0.0000
 1-4 NB =         0.0000  1-4 EEL =       -10.4255  VDWAALS    =         0.0000
 EELEC  =       162.3497  EHBOND  =         0.0000  RESTRAINT  =         0.0000
 EKCMT  =         0.0000  VIRIAL  =         0.0000  VOLUME     =         0.0000
                                                    Density    =         0.0000
 DV/DL  =       151.9242
 ------------------------------------------------------------------------------

      A V E R A G E S   O V E R    1000 S T E P S

 NSTEP =     2000   TIME(PS) =     204.000  TEMP(K) =   300.55  PRESS =  -624.7
 Etot   =    -53028.2897  EKtot   =     12452.7282  EPtot      =    -65481.0180
 BOND   =         1.1481  ANGLE   =         5.6756  DIHED      =         5.2863
 1-4 NB =         0.3451  1-4 EEL =         9.2281  VDWAALS    =      9600.4773
 EELEC  =    -75103.1785  EHBOND  =         0.0000  RESTRAINT  =         0.0000
 EKCMT  =      6250.6832  VIRIAL  =      9308.8641  VOLUME     =    226736.6036
                                                    Density    =         0.9171
 DV/DL  =       149.9544
 ------------------------------------------------------------------------------

      R M S  F L U C T U A T I O N S

 NSTEP =     2000   TIME(PS) =     204.000  TEMP(K) =     2.02  PRESS =   118.7
 Etot   =       149.5921  EKtot   =        83.6951  EPtot      =       121.7697
 BOND   =         0.8609  ANGLE   =         1.3987  DIHED      =         0.1020
 1-4 NB =         0.2029  1-4 EEL =         0.1493  VDWAALS    =       114.5121
 EELEC  =       183.2759  EHBOND  =         0.0000  RESTRAINT  =         0.0000
 EKCMT  =        58.1539  VIRIAL  =       576.3603  VOLUME     =       701.7247
                                                    Density    =         0.0028
 DV/DL  =         8.9684
 ------------------------------------------------------------------------------

      A V E R A G E S   O V E R    1000 S T E P S

 NSTEP =     2000   TIME(PS) =     204.000  TEMP(K) =   300.55  PRESS =  -624.7
 Etot   =    -53028.2897  EKtot   =     12452.7282  EPtot      =    -65481.0180
 BOND   =         1.1481  ANGLE   =         5.6756  DIHED      =         5.2863
 1-4 NB =         0.3451  1-4 EEL =         9.2281  VDWAALS    =      9600.4773
 EELEC  =    -75103.1785  EHBOND  =         0.0000  RESTRAINT  =         0.0000
 EKCMT  =      6250.6832  VIRIAL  =      9308.8641  VOLUME     =    226736.6036
                                                    Density    =         0.9171
 DV/DL  =       149.9544
 ------------------------------------------------------------------------------

      R M S  F L U C T U A T I O N S

 NSTEP =     2000   TIME(PS) =     204.000  TEMP(K) =     2.02  PRESS =   118.7
 Etot   =       149.5921  EKtot   =        83.6951  EPtot      =       121.7697
 BOND   =         0.8609  ANGLE   =         1.3987  DIHED      =         0.1020
 1-4 NB =         0.2029  1-4 EEL =         0.1493  VDWAALS    =       114.5121
 EELEC  =       183.2759  EHBOND  =         0.0000  RESTRAINT  =         0.0000
 EKCMT  =        58.1539  VIRIAL  =       576.3603  VOLUME     =       701.7247
                                                    Density    =         0.0028
 DV/DL  =         8.9684
 ------------------------------------------------------------------------------

      DV/DL, AVERAGES OVER    1000 STEPS

 NSTEP =     2000   TIME(PS) =     204.000  TEMP(K) =     2.02  PRESS =     0.0
 Etot   =         0.0000  EKtot   =         0.0000  EPtot      =       149.9544
 BOND   =         0.0000  ANGLE   =         0.0000  DIHED      =         0.0000
 1-4 NB =         0.0000  1-4 EEL =       -10.4278  VDWAALS    =         0.0000
 EELEC  =       160.3822  EHBOND  =         0.0000  RESTRAINT  =         0.0000
 EKCMT  =         0.0000  VIRIAL  =         0.0000  VOLUME     =         0.0000
                                                    Density    =         0.0000
 DV/DL  =       149.9544
 ------------------------------------------------------------------------------

      A V E R A G E S   O V E R    1000 S T E P S

 NSTEP =   500000   TIME(PS) =    1200.000  TEMP(K) =   299.58  PRESS =     5.1
 Etot   =    -53898.7037  EKtot   =     12412.4593  EPtot      =    -66311.1629
 BOND   =         0.9596  ANGLE   =         5.5962  DIHED      =         5.2775
 1-4 NB =         0.3713  1-4 EEL =         9.2430  VDWAALS    =      9893.5152
 EELEC  =    -76226.1259  EHBOND  =         0.0000  RESTRAINT  =         0.0000
 EKCMT  =      6233.7789  VIRIAL  =      6210.4874  VOLUME     =    211305.0701
                                                    Density    =         0.9840
 DV/DL  =       150.8065
 ------------------------------------------------------------------------------

      R M S  F L U C T U A T I O N S

 NSTEP =   500000   TIME(PS) =    1200.000  TEMP(K) =     1.65  PRESS =   110.1
 Etot   =        84.0069  EKtot   =        68.3028  EPtot      =        87.4616
 BOND   =         0.6990  ANGLE   =         1.1698  DIHED      =         0.0814
 1-4 NB =         0.2186  1-4 EEL =         0.1428  VDWAALS    =       106.0001
 EELEC  =       153.2679  EHBOND  =         0.0000  RESTRAINT  =         0.0000
 EKCMT  =        43.8755  VIRIAL  =       503.7587  VOLUME     =        41.5362
                                                    Density    =         0.0002
 DV/DL  =        10.3469
 ------------------------------------------------------------------------------

      A V E R A G E S   O V E R    1000 S T E P S

 NSTEP =   500000   TIME(PS) =    1200.000  TEMP(K) =   299.58  PRESS =     5.1
 Etot   =    -53898.7037  EKtot   =     12412.4593  EPtot      =    -66311.1629
 BOND   =         0.9596  ANGLE   =         5.5962  DIHED      =         5.2775
 1-4 NB =         0.3713  1-4 EEL =         9.2430  VDWAALS    =      9893.5152
 EELEC  =    -76226.1259  EHBOND  =         0.0000  RESTRAINT  =         0.0000
 EKCMT  =      6233.7789  VIRIAL  =      6210.4874  VOLUME     =    211305.0701
                                                    Density    =         0.9840
 DV/DL  =       150.8065
 ------------------------------------------------------------------------------

      R M S  F L U C T U A T I O N S

 NSTEP =   500000   TIME(PS) =    1200.000  TEMP(K) =     1.65  PRESS =   110.1
 Etot   =        84.0069  EKtot   =        68.3028  EPtot      =        87.4616
 BOND   =         0.6990  ANGLE   =         1.1698  DIHED      =         0.0814
 1-4 NB =         0.2186  1-4 EEL =         0.1428  VDWAALS    =       106.0001
 EELEC  =       153.2679  EHBOND  =         0.0000  RESTRAINT  =         0.0000
 EKCMT  =        43.8755  VIRIAL  =       503.7587  VOLUME     =        41.5362
                                                    Density    =         0.0002
 DV/DL  =        10.3469
 ------------------------------------------------------------------------------

      DV/DL, AVERAGES OVER    1000 STEPS

 NSTEP =   500000   TIME(PS) =    1200.000  TEMP(K) =     1.65  PRESS =     0.0
 Etot   =         0.0000  EKtot   =         0.0000  EPtot      =       150.8065
 BOND   =         0.0000  ANGLE   =         0.0000  DIHED      =         0.0000
 1-4 NB =         0.0000  1-4 EEL =       -10.4447  VDWAALS    =         0.0000
 EELEC  =       161.2512  EHBOND  =         0.0000  RESTRAINT  =         0.0000
 EKCMT  =         0.0000  VIRIAL  =         0.0000  VOLUME     =         0.0000
                                                    Density    =         0.0000
 DV/DL  =       150.8065
 ------------------------------------------------------------------------------

      A V E R A G E S   O V E R  500000 S T E P S

 NSTEP =   500000   TIME(PS) =    1200.000  TEMP(K) =   300.09  PRESS =    -9.0
 Etot   =    -53887.1079  EKtot   =     12433.5321  EPtot      =    -66320.6400
 BOND   =         0.9607  ANGLE   =         5.3656  DIHED      =         5.2852
 1-4 NB =         0.3550  1-4 EEL =         9.2355  VDWAALS    =      9911.4654
 EELEC  =    -76253.3074  EHBOND  =         0.0000  RESTRAINT  =         0.0000
 EKCMT  =      6236.1724  VIRIAL  =      6279.1942  VOLUME     =    211646.1970
                                                    Density    =         0.9825
 DV/DL  =       150.8929
 ------------------------------------------------------------------------------

      R M S  F L U C T U A T I O N S

 NSTEP =   500000   TIME(PS) =    1200.000  TEMP(K) =     2.08  PRESS =   144.8
 Etot   =       168.1830  EKtot   =        86.1568  EPtot      =       144.8150
 BOND   =         0.7888  ANGLE   =         1.3159  DIHED      =         0.0963
 1-4 NB =         0.2071  1-4 EEL =         0.1445  VDWAALS    =       126.9515
 EELEC  =       221.6425  EHBOND  =         0.0000  RESTRAINT  =         0.0000
 EKCMT  =        60.9855  VIRIAL  =       667.8182  VOLUME     =      1464.3932
                                                    Density    =         0.0064
 DV/DL  =        10.2627
 ------------------------------------------------------------------------------

      A V E R A G E S   O V E R  500000 S T E P S

 NSTEP =   500000   TIME(PS) =    1200.000  TEMP(K) =   300.09  PRESS =    -9.0
 Etot   =    -53887.1079  EKtot   =     12433.5321  EPtot      =    -66320.6400
 BOND   =         0.9607  ANGLE   =         5.3656  DIHED      =         5.2852
 1-4 NB =         0.3550  1-4 EEL =         9.2355  VDWAALS    =      9911.4654
 EELEC  =    -76253.3074  EHBOND  =         0.0000  RESTRAINT  =         0.0000
 EKCMT  =      6236.1724  VIRIAL  =      6279.1942  VOLUME     =    211646.1970
                                                    Density    =         0.9825
 DV/DL  =       150.8929
 ------------------------------------------------------------------------------

      R M S  F L U C T U A T I O N S

 NSTEP =   500000   TIME(PS) =    1200.000  TEMP(K) =     2.08  PRESS =   144.8
 Etot   =       168.1830  EKtot   =        86.1568  EPtot      =       144.8150
 BOND   =         0.7888  ANGLE   =         1.3159  DIHED      =         0.0963
 1-4 NB =         0.2071  1-4 EEL =         0.1445  VDWAALS    =       126.9515
 EELEC  =       221.6425  EHBOND  =         0.0000  RESTRAINT  =         0.0000
 EKCMT  =        60.9855  VIRIAL  =       667.8182  VOLUME     =      1464.3932
                                                    Density    =         0.0064
 DV/DL  =        10.2627
 ------------------------------------------------------------------------------

      DV/DL, AVERAGES OVER  500000 STEPS

 NSTEP =   500000   TIME(PS) =    1200.000  TEMP(K) =     2.08  PRESS =     0.0
 Etot   =         0.0000  EKtot   =         0.0000  EPtot      =       150.8929
 BOND   =         0.0000  ANGLE   =         0.0000  DIHED      =         0.0000
 1-4 NB =         0.0000  1-4 EEL =       -10.4362  VDWAALS    =         0.0000
 EELEC  =       161.3291  EHBOND  =         0.0000  RESTRAINT  =         0.0000
 EKCMT  =         0.0000  VIRIAL  =         0.0000  VOLUME     =         0.0000
                                                    Density    =         0.0000
 DV/DL  =       150.8929
 ------------------------------------------------------------------------------
