-------------------------------------------------------
          Amber 20 PMEMD                              2020
          -------------------------------------------------------

  [-O]verwriting output

File Assignments:

 Here is the input file:

 &cntrl
   nstlim=500000, nscm=1000,
   ntx=5, irest=1, ntpr=1000,
   tempi=300.0, temp0=300.0, ntt=3, gamma_ln=2.0,
   ntp=1, pres0=1.01325, taup=5.0,
   ntb=2, igb=0, cut=10.0,
   dt=0.002, ig=-1,
   ntc=2, ntf=2,
   iwrap=0,
   ntwr=1000, ntwx=50000, ntave=1000,
   ioutfm=1, ntwv=-1,
   ifsc = 0, icfe=1,
   clambda=0.43738,
   timask1=':1',
   timask2=':2', crgmask = ':2',
/

Note: ig = -1. Setting random seed to   930910 based on wallclock time in
      microseconds.

--------------------------------------------------------------------------------
   1.  RESOURCE   USE:
--------------------------------------------------------------------------------

 getting box info from netcdf restart file
 NATOM  =   20855 NTYPES =       6 NBONH =   20847 MBONA  =       6
 NTHETH =      12 MTHETA =       6 NPHIH =      24 MPHIA  =       2
 NHPARM =       0 NPARM  =       0 NNB   =   27832 NRES   =    6949
 NBONA  =       6 NTHETA =       6 NPHIA =       2 NUMBND =       5
 NUMANG =       4 NPTRA  =       3 NATYP =       6 NPHB   =       1
 IFBOX  =       2 NMXRS  =       7 IFCAP =       0 NEXTRA =       0
 NCOPY  =       0

     BOX TYPE: TRUNCATED OCTAHEDRON

--------------------------------------------------------------------------------
   2.  CONTROL  DATA  FOR  THE  RUN
--------------------------------------------------------------------------------

default_name

General flags:
     imin    =       0, nmropt  =       0

Nature and format of input:
     ntx     =       5, irest   =       1, ntrx    =       1

Nature and format of output:
     ntxo    =       2, ntpr    =    1000, ntrx    =       1, ntwr    =    1000
     iwrap   =       0, ntwx    =   50000, ntwv    =      -1, ntwe    =       0
     ioutfm  =       1, ntwprt  =       0, idecomp =       0, rbornstat=      0

Potential function:
     ntf     =       2, ntb     =       2, igb     =       0, nsnb    =      25
     ipol    =       0, gbsa    =       0, iesp    =       0
     dielc   =   1.00000, cut     =  10.00000, intdiel =   1.00000

Frozen or restrained atoms:
     ibelly  =       0, ntr     =       0

Molecular dynamics:
     nstlim  =    500000, nscm    =      1000, nrespa  =         1
     t       =   0.00000, dt      =   0.00200, vlimit  =  -1.00000

Langevin dynamics temperature regulation:
     ig      =  930910
     temp0   = 300.00000, tempi   = 300.00000, gamma_ln=   2.00000

Pressure regulation:
     ntp     =       1
     pres0   =   1.01325, comp    =  44.60000, taup    =   5.00000

SHAKE:
     ntc     =       2, jfastw  =       0
     tol     =   0.00001

Free energy options:
     icfe    =       1, ifsc    =       0, klambda =       1
     clambda =  0.4374, scalpha =  0.5000, scbeta  = 12.0000
     sceeorder =       2
     dynlmb =  0.0000 logdvdl =       0

Ewald parameters:
     verbose =       0, ew_type =       0, nbflag  =       1, use_pme =       1
     vdwmeth =       1, eedmeth =       1, netfrc  =       1
     Box X =   66.953   Box Y =   66.953   Box Z =   66.953
     Alpha =  109.471   Beta  =  109.471   Gamma =  109.471
     NFFT1 =   64       NFFT2 =   64       NFFT3 =   64
     Cutoff=   10.000   Tol   =0.100E-04
     Ewald Coefficient =  0.27511
     Interpolation order =    4
     TI Mask 1 :1; matches      7 atoms
     TI Mask 2 :2; matches      7 atoms
     TI region 1:   20848 atoms
     TI region 2:   20848 atoms
Removing charge of      -0.8188 from atom       8
Removing charge of      -0.8188 from atom       9
Removing charge of       0.8054 from atom      10
Removing charge of      -0.1021 from atom      11
Removing charge of      -0.0219 from atom      12
Removing charge of      -0.0219 from atom      13
Removing charge of      -0.0219 from atom      14
Total charge of  -0.99999900 removed from       7 atoms
     Checking for mismatched coordinates.

--------------------------------------------------------------------------------
   3.  ATOMIC COORDINATES AND VELOCITIES
--------------------------------------------------------------------------------

default_name
 begin time read from input coords =   200.000 ps

 Number of triangulated 3-point waters found:     6947

     Sum of charges for TI region  1 =  -0.99999900
     Skip neutralizing charges...

     Sum of charges for TI region  2 =   0.00000000
     Skip neutralizing charges...

--------------------------------------------------------------------------------
   4.  RESULTS
 NSTEP =     1000   TIME(PS) =     202.000  TEMP(K) =   302.67  PRESS =  -938.5
 Etot   =    -52590.1599  EKtot   =     12540.6163  EPtot      =    -65130.7762
 BOND   =         0.1457  ANGLE   =         5.1749  DIHED      =         5.2116
 1-4 NB =         0.3630  1-4 EEL =         5.9548  VDWAALS    =      9408.8465
 EELEC  =    -74556.4729  EHBOND  =         0.0000  RESTRAINT  =         0.0000
 EKCMT  =      6358.5036  VIRIAL  =     10961.2327  VOLUME     =    227141.7836
                                                    Density    =         0.9154
 DV/DL  =        89.4139
 ------------------------------------------------------------------------------

      A V E R A G E S   O V E R    1000 S T E P S

 NSTEP =     1000   TIME(PS) =     202.000  TEMP(K) =   301.97  PRESS =  -953.1
 Etot   =    -52430.8515  EKtot   =     12511.5928  EPtot      =    -64942.4443
 BOND   =         0.8021  ANGLE   =         4.6516  DIHED      =         5.2940
 1-4 NB =         0.3964  1-4 EEL =         5.8893  VDWAALS    =      9427.1361
 EELEC  =    -74386.6138  EHBOND  =         0.0000  RESTRAINT  =         0.0000
 EKCMT  =      6286.5078  VIRIAL  =     11000.5975  VOLUME     =    228995.8125
                                                    Density    =         0.9080
 DV/DL  =        92.9134
 ------------------------------------------------------------------------------

      R M S  F L U C T U A T I O N S

 NSTEP =     1000   TIME(PS) =     202.000  TEMP(K) =     1.65  PRESS =   145.9
 Etot   =       156.8180  EKtot   =        68.4140  EPtot      =       162.3087
 BOND   =         0.6209  ANGLE   =         0.8508  DIHED      =         0.0975
 1-4 NB =         0.2432  1-4 EEL =         0.1059  VDWAALS    =       141.7531
 EELEC  =       263.6084  EHBOND  =         0.0000  RESTRAINT  =         0.0000
 EKCMT  =        47.4951  VIRIAL  =       713.8265  VOLUME     =      1114.8639
                                                    Density    =         0.0044
 DV/DL  =         9.9568
 ------------------------------------------------------------------------------

      A V E R A G E S   O V E R    1000 S T E P S

 NSTEP =     1000   TIME(PS) =     202.000  TEMP(K) =   301.97  PRESS =  -953.1
 Etot   =    -52430.8515  EKtot   =     12511.5928  EPtot      =    -64942.4443
 BOND   =         0.8021  ANGLE   =         4.6516  DIHED      =         5.2940
 1-4 NB =         0.3964  1-4 EEL =         5.8893  VDWAALS    =      9427.1361
 EELEC  =    -74386.6138  EHBOND  =         0.0000  RESTRAINT  =         0.0000
 EKCMT  =      6286.5078  VIRIAL  =     11000.5975  VOLUME     =    228995.8125
                                                    Density    =         0.9080
 DV/DL  =        92.9134
 ------------------------------------------------------------------------------

      R M S  F L U C T U A T I O N S

 NSTEP =     1000   TIME(PS) =     202.000  TEMP(K) =     1.65  PRESS =   145.9
 Etot   =       156.8180  EKtot   =        68.4140  EPtot      =       162.3087
 BOND   =         0.6209  ANGLE   =         0.8508  DIHED      =         0.0975
 1-4 NB =         0.2432  1-4 EEL =         0.1059  VDWAALS    =       141.7531
 EELEC  =       263.6084  EHBOND  =         0.0000  RESTRAINT  =         0.0000
 EKCMT  =        47.4951  VIRIAL  =       713.8265  VOLUME     =      1114.8639
                                                    Density    =         0.0044
 DV/DL  =         9.9568
 ------------------------------------------------------------------------------

      DV/DL, AVERAGES OVER    1000 STEPS

 NSTEP =     1000   TIME(PS) =     202.000  TEMP(K) =     1.65  PRESS =     0.0
 Etot   =         0.0000  EKtot   =         0.0000  EPtot      =        92.9134
 BOND   =         0.0000  ANGLE   =         0.0000  DIHED      =         0.0000
 1-4 NB =         0.0000  1-4 EEL =       -10.4676  VDWAALS    =         0.0000
 EELEC  =       103.3810  EHBOND  =         0.0000  RESTRAINT  =         0.0000
 EKCMT  =         0.0000  VIRIAL  =         0.0000  VOLUME     =         0.0000
                                                    Density    =         0.0000
 DV/DL  =        92.9134
 ------------------------------------------------------------------------------

      A V E R A G E S   O V E R    1000 S T E P S

 NSTEP =     2000   TIME(PS) =     204.000  TEMP(K) =   300.10  PRESS =  -810.5
 Etot   =    -52875.1768  EKtot   =     12434.0493  EPtot      =    -65309.2261
 BOND   =         1.0788  ANGLE   =         5.0214  DIHED      =         5.2474
 1-4 NB =         0.3963  1-4 EEL =         5.8847  VDWAALS    =      9537.4056
 EELEC  =    -74864.2604  EHBOND  =         0.0000  RESTRAINT  =         0.0000
 EKCMT  =      6233.7303  VIRIAL  =     10179.8388  VOLUME     =    225426.4597
                                                    Density    =         0.9224
 DV/DL  =        90.4875
 ------------------------------------------------------------------------------

      R M S  F L U C T U A T I O N S

 NSTEP =     2000   TIME(PS) =     204.000  TEMP(K) =     1.91  PRESS =   130.9
 Etot   =       138.5893  EKtot   =        79.1932  EPtot      =       102.9420
 BOND   =         0.7781  ANGLE   =         0.9369  DIHED      =         0.0483
 1-4 NB =         0.2049  1-4 EEL =         0.0751  VDWAALS    =       120.5680
 EELEC  =       186.8543  EHBOND  =         0.0000  RESTRAINT  =         0.0000
 EKCMT  =        60.5732  VIRIAL  =       659.8990  VOLUME     =       920.9784
                                                    Density    =         0.0038
 DV/DL  =         9.4822
 ------------------------------------------------------------------------------

      A V E R A G E S   O V E R    1000 S T E P S

 NSTEP =     2000   TIME(PS) =     204.000  TEMP(K) =   300.10  PRESS =  -810.5
 Etot   =    -52875.1768  EKtot   =     12434.0493  EPtot      =    -65309.2261
 BOND   =         1.0788  ANGLE   =         5.0214  DIHED      =         5.2474
 1-4 NB =         0.3963  1-4 EEL =         5.8847  VDWAALS    =      9537.4056
 EELEC  =    -74864.2604  EHBOND  =         0.0000  RESTRAINT  =         0.0000
 EKCMT  =      6233.7303  VIRIAL  =     10179.8388  VOLUME     =    225426.4597
                                                    Density    =         0.9224
 DV/DL  =        90.4875
 ------------------------------------------------------------------------------

      R M S  F L U C T U A T I O N S

 NSTEP =     2000   TIME(PS) =     204.000  TEMP(K) =     1.91  PRESS =   130.9
 Etot   =       138.5893  EKtot   =        79.1932  EPtot      =       102.9420
 BOND   =         0.7781  ANGLE   =         0.9369  DIHED      =         0.0483
 1-4 NB =         0.2049  1-4 EEL =         0.0751  VDWAALS    =       120.5680
 EELEC  =       186.8543  EHBOND  =         0.0000  RESTRAINT  =         0.0000
 EKCMT  =        60.5732  VIRIAL  =       659.8990  VOLUME     =       920.9784
                                                    Density    =         0.0038
 DV/DL  =         9.4822
 ------------------------------------------------------------------------------

      DV/DL, AVERAGES OVER    1000 STEPS

 NSTEP =     2000   TIME(PS) =     204.000  TEMP(K) =     1.91  PRESS =     0.0
 Etot   =         0.0000  EKtot   =         0.0000  EPtot      =        90.4875
 BOND   =         0.0000  ANGLE   =         0.0000  DIHED      =         0.0000
 1-4 NB =         0.0000  1-4 EEL =       -10.4594  VDWAALS    =         0.0000
 EELEC  =       100.9470  EHBOND  =         0.0000  RESTRAINT  =         0.0000
 EKCMT  =         0.0000  VIRIAL  =         0.0000  VOLUME     =         0.0000
                                                    Density    =         0.0000
 DV/DL  =        90.4875
 ------------------------------------------------------------------------------

      A V E R A G E S   O V E R    1000 S T E P S

 NSTEP =   500000   TIME(PS) =    1200.000  TEMP(K) =   300.43  PRESS =   -20.7
 Etot   =    -53812.3044  EKtot   =     12447.5387  EPtot      =    -66259.8431
 BOND   =         1.1385  ANGLE   =         5.0313  DIHED      =         5.3110
 1-4 NB =         0.3960  1-4 EEL =         5.8949  VDWAALS    =      9901.6846
 EELEC  =    -76179.2994  EHBOND  =         0.0000  RESTRAINT  =         0.0000
 EKCMT  =      6240.7074  VIRIAL  =      6335.2893  VOLUME     =    211790.6380
                                                    Density    =         0.9818
 DV/DL  =        94.5298
 ------------------------------------------------------------------------------

      R M S  F L U C T U A T I O N S

 NSTEP =   500000   TIME(PS) =    1200.000  TEMP(K) =     1.62  PRESS =   115.8
 Etot   =       131.8727  EKtot   =        67.2036  EPtot      =       133.2717
 BOND   =         0.9280  ANGLE   =         1.2271  DIHED      =         0.1342
 1-4 NB =         0.2162  1-4 EEL =         0.1007  VDWAALS    =       134.1469
 EELEC  =       236.3380  EHBOND  =         0.0000  RESTRAINT  =         0.0000
 EKCMT  =        65.6543  VIRIAL  =       551.2952  VOLUME     =        39.6836
                                                    Density    =         0.0002
 DV/DL  =        11.8864
 ------------------------------------------------------------------------------

      A V E R A G E S   O V E R    1000 S T E P S

 NSTEP =   500000   TIME(PS) =    1200.000  TEMP(K) =   300.43  PRESS =   -20.7
 Etot   =    -53812.3044  EKtot   =     12447.5387  EPtot      =    -66259.8431
 BOND   =         1.1385  ANGLE   =         5.0313  DIHED      =         5.3110
 1-4 NB =         0.3960  1-4 EEL =         5.8949  VDWAALS    =      9901.6846
 EELEC  =    -76179.2994  EHBOND  =         0.0000  RESTRAINT  =         0.0000
 EKCMT  =      6240.7074  VIRIAL  =      6335.2893  VOLUME     =    211790.6380
                                                    Density    =         0.9818
 DV/DL  =        94.5298
 ------------------------------------------------------------------------------

      R M S  F L U C T U A T I O N S

 NSTEP =   500000   TIME(PS) =    1200.000  TEMP(K) =     1.62  PRESS =   115.8
 Etot   =       131.8727  EKtot   =        67.2036  EPtot      =       133.2717
 BOND   =         0.9280  ANGLE   =         1.2271  DIHED      =         0.1342
 1-4 NB =         0.2162  1-4 EEL =         0.1007  VDWAALS    =       134.1469
 EELEC  =       236.3380  EHBOND  =         0.0000  RESTRAINT  =         0.0000
 EKCMT  =        65.6543  VIRIAL  =       551.2952  VOLUME     =        39.6836
                                                    Density    =         0.0002
 DV/DL  =        11.8864
 ------------------------------------------------------------------------------

      DV/DL, AVERAGES OVER    1000 STEPS

 NSTEP =   500000   TIME(PS) =    1200.000  TEMP(K) =     1.62  PRESS =     0.0
 Etot   =         0.0000  EKtot   =         0.0000  EPtot      =        94.5298
 BOND   =         0.0000  ANGLE   =         0.0000  DIHED      =         0.0000
 1-4 NB =         0.0000  1-4 EEL =       -10.4776  VDWAALS    =         0.0000
 EELEC  =       105.0074  EHBOND  =         0.0000  RESTRAINT  =         0.0000
 EKCMT  =         0.0000  VIRIAL  =         0.0000  VOLUME     =         0.0000
                                                    Density    =         0.0000
 DV/DL  =        94.5298
 ------------------------------------------------------------------------------

      A V E R A G E S   O V E R  500000 S T E P S

 NSTEP =   500000   TIME(PS) =    1200.000  TEMP(K) =   300.14  PRESS =    -8.8
 Etot   =    -53832.3447  EKtot   =     12435.6642  EPtot      =    -66268.0089
 BOND   =         0.9525  ANGLE   =         5.1893  DIHED      =         5.2805
 1-4 NB =         0.4023  1-4 EEL =         5.8902  VDWAALS    =      9906.1340
 EELEC  =    -76191.8577  EHBOND  =         0.0000  RESTRAINT  =         0.0000
 EKCMT  =      6237.7612  VIRIAL  =      6279.9269  VOLUME     =    211712.6643
                                                    Density    =         0.9822
 DV/DL  =        93.6784
 ------------------------------------------------------------------------------

      R M S  F L U C T U A T I O N S

 NSTEP =   500000   TIME(PS) =    1200.000  TEMP(K) =     2.07  PRESS =   148.2
 Etot   =       176.1619  EKtot   =        85.9319  EPtot      =       151.5298
 BOND   =         0.7820  ANGLE   =         1.2141  DIHED      =         0.0905
 1-4 NB =         0.2342  1-4 EEL =         0.0946  VDWAALS    =       128.6026
 EELEC  =       232.1289  EHBOND  =         0.0000  RESTRAINT  =         0.0000
 EKCMT  =        61.0341  VIRIAL  =       687.9941  VOLUME     =      1264.4776
                                                    Density    =         0.0055
 DV/DL  =        10.4905
 ------------------------------------------------------------------------------

      A V E R A G E S   O V E R  500000 S T E P S

 NSTEP =   500000   TIME(PS) =    1200.000  TEMP(K) =   300.14  PRESS =    -8.8
 Etot   =    -53832.3447  EKtot   =     12435.6642  EPtot      =    -66268.0089
 BOND   =         0.9525  ANGLE   =         5.1893  DIHED      =         5.2805
 1-4 NB =         0.4023  1-4 EEL =         5.8902  VDWAALS    =      9906.1340
 EELEC  =    -76191.8577  EHBOND  =         0.0000  RESTRAINT  =         0.0000
 EKCMT  =      6237.7612  VIRIAL  =      6279.9269  VOLUME     =    211712.6643
                                                    Density    =         0.9822
 DV/DL  =        93.6784
 ------------------------------------------------------------------------------

      R M S  F L U C T U A T I O N S

 NSTEP =   500000   TIME(PS) =    1200.000  TEMP(K) =     2.07  PRESS =   148.2
 Etot   =       176.1619  EKtot   =        85.9319  EPtot      =       151.5298
 BOND   =         0.7820  ANGLE   =         1.2141  DIHED      =         0.0905
 1-4 NB =         0.2342  1-4 EEL =         0.0946  VDWAALS    =       128.6026
 EELEC  =       232.1289  EHBOND  =         0.0000  RESTRAINT  =         0.0000
 EKCMT  =        61.0341  VIRIAL  =       687.9941  VOLUME     =      1264.4776
                                                    Density    =         0.0055
 DV/DL  =        10.4905
 ------------------------------------------------------------------------------

      DV/DL, AVERAGES OVER  500000 STEPS

 NSTEP =   500000   TIME(PS) =    1200.000  TEMP(K) =     2.07  PRESS =     0.0
 Etot   =         0.0000  EKtot   =         0.0000  EPtot      =        93.6784
 BOND   =         0.0000  ANGLE   =         0.0000  DIHED      =         0.0000
 1-4 NB =         0.0000  1-4 EEL =       -10.4692  VDWAALS    =         0.0000
 EELEC  =       104.1475  EHBOND  =         0.0000  RESTRAINT  =         0.0000
 EKCMT  =         0.0000  VIRIAL  =         0.0000  VOLUME     =         0.0000
                                                    Density    =         0.0000
 DV/DL  =        93.6784
 ------------------------------------------------------------------------------
