-------------------------------------------------------
          Amber 20 PMEMD                              2020
          -------------------------------------------------------

  [-O]verwriting output

File Assignments:

 Here is the input file:

 &cntrl
   nstlim=500000, nscm=1000,
   ntx=1, irest=0, ntpr=1000,
   tempi=300.0, temp0=300.0, ntt=3, gamma_ln=2.0,

   ntb=1, igb=0, cut=10.0,
   dt=0.002, ig=-1,
   ntc=2, ntf=2,
   iwrap=0,
   ntwr=1000, ntwx=50000, ntave=1000,
   ioutfm=1, ntwv=-1,
   ifsc = 0, icfe=1,
   clambda=0.99078,
   timask1=':1',
   timask2=':2', crgmask = ':2',
/

Note: ig = -1. Setting random seed to   834482 based on wallclock time in
      microseconds.

--------------------------------------------------------------------------------
   1.  RESOURCE   USE:
--------------------------------------------------------------------------------

 getting box info from netcdf restart file
 NATOM  =      14 NTYPES =       6 NBONH =       6 MBONA  =       6
 NTHETH =      12 MTHETA =       6 NPHIH =      24 MPHIA  =       2
 NHPARM =       0 NPARM  =       0 NNB   =      44 NRES   =       2
 NBONA  =       6 NTHETA =       6 NPHIA =       2 NUMBND =       3
 NUMANG =       4 NPTRA  =       3 NATYP =       6 NPHB   =       1
 IFBOX  =       2 NMXRS  =       7 IFCAP =       0 NEXTRA =       0
 NCOPY  =       0

     BOX TYPE: TRUNCATED OCTAHEDRON

--------------------------------------------------------------------------------
   2.  CONTROL  DATA  FOR  THE  RUN
--------------------------------------------------------------------------------

default_name

General flags:
     imin    =       0, nmropt  =       0

Nature and format of input:
     ntx     =       1, irest   =       0, ntrx    =       1

Nature and format of output:
     ntxo    =       2, ntpr    =    1000, ntrx    =       1, ntwr    =    1000
     iwrap   =       0, ntwx    =   50000, ntwv    =      -1, ntwe    =       0
     ioutfm  =       1, ntwprt  =       0, idecomp =       0, rbornstat=      0

Potential function:
     ntf     =       2, ntb     =       1, igb     =       0, nsnb    =      25
     ipol    =       0, gbsa    =       0, iesp    =       0
     dielc   =   1.00000, cut     =  10.00000, intdiel =   1.00000

Frozen or restrained atoms:
     ibelly  =       0, ntr     =       0

Molecular dynamics:
     nstlim  =    500000, nscm    =      1000, nrespa  =         1
     t       =   0.00000, dt      =   0.00200, vlimit  =  -1.00000

Langevin dynamics temperature regulation:
     ig      =  834482
     temp0   = 300.00000, tempi   = 300.00000, gamma_ln=   2.00000

SHAKE:
     ntc     =       2, jfastw  =       0
     tol     =   0.00001

Free energy options:
     icfe    =       1, ifsc    =       0, klambda =       1
     clambda =  0.9908, scalpha =  0.5000, scbeta  = 12.0000
     sceeorder =       2
     dynlmb =  0.0000 logdvdl =       0

Ewald parameters:
     verbose =       0, ew_type =       0, nbflag  =       1, use_pme =       1
     vdwmeth =       1, eedmeth =       1, netfrc  =       1
     Box X =   66.953   Box Y =   66.953   Box Z =   66.953
     Alpha =  109.471   Beta  =  109.471   Gamma =  109.471
     NFFT1 =   64       NFFT2 =   64       NFFT3 =   64
     Cutoff=   10.000   Tol   =0.100E-04
     Ewald Coefficient =  0.27511
     Interpolation order =    4
     TI Mask 1 :1; matches      7 atoms
     TI Mask 2 :2; matches      7 atoms
     TI region 1:       7 atoms
     TI region 2:       7 atoms
Removing charge of      -0.8188 from atom       8
Removing charge of      -0.8188 from atom       9
Removing charge of       0.8054 from atom      10
Removing charge of      -0.1021 from atom      11
Removing charge of      -0.0219 from atom      12
Removing charge of      -0.0219 from atom      13
Removing charge of      -0.0219 from atom      14
Total charge of  -0.99999900 removed from       7 atoms
     Checking for mismatched coordinates.

--------------------------------------------------------------------------------
   3.  ATOMIC COORDINATES AND VELOCITIES
--------------------------------------------------------------------------------

default_name
 begin time read from input coords =     0.000 ps

 Number of triangulated 3-point waters found:        0

     Sum of charges for TI region  1 =  -0.99999900
     Skip neutralizing charges...

     Sum of charges for TI region  2 =   0.00000000
     Skip neutralizing charges...

--------------------------------------------------------------------------------
   4.  RESULTS
 NSTEP =        0   TIME(PS) =       0.000  TEMP(K) =   222.38  PRESS =     0.0
 Etot   =        12.3345  EKtot   =         3.9772  EPtot      =         8.3573
 BOND   =         0.0093  ANGLE   =         2.7868  DIHED      =         5.2200
 1-4 NB =         0.3169  1-4 EEL =         0.0965  VDWAALS    =        -0.0001
 EELEC  =        -0.0720  EHBOND  =         0.0000  RESTRAINT  =         0.0000
 DV/DL  =        -2.6558
 ------------------------------------------------------------------------------

      A V E R A G E S   O V E R    1000 S T E P S

 NSTEP =     1000   TIME(PS) =       2.000  TEMP(K) =   196.23  PRESS =     0.0
 Etot   =        13.9068  EKtot   =         3.5095  EPtot      =        10.3973
 BOND   =         0.5414  ANGLE   =         4.1822  DIHED      =         5.2779
 1-4 NB =         0.3713  1-4 EEL =         0.0965  VDWAALS    =        -0.0001
 EELEC  =        -0.0720  EHBOND  =         0.0000  RESTRAINT  =         0.0000
 DV/DL  =        -2.6643
 ------------------------------------------------------------------------------

      R M S  F L U C T U A T I O N S

 NSTEP =     1000   TIME(PS) =       2.000  TEMP(K) =    60.37  PRESS =     0.0
 Etot   =         1.2152  EKtot   =         1.0797  EPtot      =         0.7179
 BOND   =         0.4175  ANGLE   =         0.6139  DIHED      =         0.0770
 1-4 NB =         0.1378  1-4 EEL =         0.0010  VDWAALS    =         0.0000
 EELEC  =         0.0000  EHBOND  =         0.0000  RESTRAINT  =         0.0000
 DV/DL  =         0.1089
 ------------------------------------------------------------------------------

      A V E R A G E S   O V E R    1000 S T E P S

 NSTEP =     1000   TIME(PS) =       2.000  TEMP(K) =   196.23  PRESS =     0.0
 Etot   =        13.9068  EKtot   =         3.5095  EPtot      =        10.3973
 BOND   =         0.5414  ANGLE   =         4.1822  DIHED      =         5.2779
 1-4 NB =         0.3713  1-4 EEL =         0.0965  VDWAALS    =        -0.0001
 EELEC  =        -0.0720  EHBOND  =         0.0000  RESTRAINT  =         0.0000
 DV/DL  =        -2.6643
 ------------------------------------------------------------------------------

      R M S  F L U C T U A T I O N S

 NSTEP =     1000   TIME(PS) =       2.000  TEMP(K) =    60.37  PRESS =     0.0
 Etot   =         1.2152  EKtot   =         1.0797  EPtot      =         0.7179
 BOND   =         0.4175  ANGLE   =         0.6139  DIHED      =         0.0770
 1-4 NB =         0.1378  1-4 EEL =         0.0010  VDWAALS    =         0.0000
 EELEC  =         0.0000  EHBOND  =         0.0000  RESTRAINT  =         0.0000
 DV/DL  =         0.1089
 ------------------------------------------------------------------------------

      DV/DL, AVERAGES OVER    1000 STEPS

 NSTEP =     1000   TIME(PS) =       2.000  TEMP(K) =    60.37  PRESS =     0.0
 Etot   =         0.0000  EKtot   =         0.0000  EPtot      =        -2.6643
 BOND   =         0.0000  ANGLE   =         0.0000  DIHED      =         0.0000
 1-4 NB =         0.0000  1-4 EEL =       -10.4712  VDWAALS    =         0.0000
 EELEC  =         7.8069  EHBOND  =         0.0000  RESTRAINT  =         0.0000
 DV/DL  =        -2.6643
 ------------------------------------------------------------------------------

      A V E R A G E S   O V E R    1000 S T E P S

 NSTEP =     2000   TIME(PS) =       4.000  TEMP(K) =   262.90  PRESS =     0.0
 Etot   =        16.0487  EKtot   =         4.7020  EPtot      =        11.3468
 BOND   =         0.6290  ANGLE   =         5.0264  DIHED      =         5.2798
 1-4 NB =         0.3871  1-4 EEL =         0.0966  VDWAALS    =        -0.0001
 EELEC  =        -0.0720  EHBOND  =         0.0000  RESTRAINT  =         0.0000
 DV/DL  =        -2.6655
 ------------------------------------------------------------------------------

      R M S  F L U C T U A T I O N S

 NSTEP =     2000   TIME(PS) =       4.000  TEMP(K) =    80.97  PRESS =     0.0
 Etot   =         1.6029  EKtot   =         1.4481  EPtot      =         1.0971
 BOND   =         0.5095  ANGLE   =         0.9907  DIHED      =         0.0752
 1-4 NB =         0.1939  1-4 EEL =         0.0014  VDWAALS    =         0.0000
 EELEC  =         0.0000  EHBOND  =         0.0000  RESTRAINT  =         0.0000
 DV/DL  =         0.1514
 ------------------------------------------------------------------------------

      A V E R A G E S   O V E R    1000 S T E P S

 NSTEP =     2000   TIME(PS) =       4.000  TEMP(K) =   262.90  PRESS =     0.0
 Etot   =        16.0487  EKtot   =         4.7020  EPtot      =        11.3468
 BOND   =         0.6290  ANGLE   =         5.0264  DIHED      =         5.2798
 1-4 NB =         0.3871  1-4 EEL =         0.0966  VDWAALS    =        -0.0001
 EELEC  =        -0.0720  EHBOND  =         0.0000  RESTRAINT  =         0.0000
 DV/DL  =        -2.6655
 ------------------------------------------------------------------------------

      R M S  F L U C T U A T I O N S

 NSTEP =     2000   TIME(PS) =       4.000  TEMP(K) =    80.97  PRESS =     0.0
 Etot   =         1.6029  EKtot   =         1.4481  EPtot      =         1.0971
 BOND   =         0.5095  ANGLE   =         0.9907  DIHED      =         0.0752
 1-4 NB =         0.1939  1-4 EEL =         0.0014  VDWAALS    =         0.0000
 EELEC  =         0.0000  EHBOND  =         0.0000  RESTRAINT  =         0.0000
 DV/DL  =         0.1514
 ------------------------------------------------------------------------------

      DV/DL, AVERAGES OVER    1000 STEPS

 NSTEP =     2000   TIME(PS) =       4.000  TEMP(K) =    80.97  PRESS =     0.0
 Etot   =         0.0000  EKtot   =         0.0000  EPtot      =        -2.6655
 BOND   =         0.0000  ANGLE   =         0.0000  DIHED      =         0.0000
 1-4 NB =         0.0000  1-4 EEL =       -10.4734  VDWAALS    =         0.0000
 EELEC  =         7.8079  EHBOND  =         0.0000  RESTRAINT  =         0.0000
 DV/DL  =        -2.6655
 ------------------------------------------------------------------------------

      A V E R A G E S   O V E R    1000 S T E P S

 NSTEP =   500000   TIME(PS) =    1000.000  TEMP(K) =   320.77  PRESS =     0.0
 Etot   =        18.1021  EKtot   =         5.7368  EPtot      =        12.3653
 BOND   =         1.2996  ANGLE   =         5.3413  DIHED      =         5.3015
 1-4 NB =         0.3984  1-4 EEL =         0.0967  VDWAALS    =        -0.0001
 EELEC  =        -0.0720  EHBOND  =         0.0000  RESTRAINT  =         0.0000
 DV/DL  =        -2.6755
 ------------------------------------------------------------------------------

      R M S  F L U C T U A T I O N S

 NSTEP =   500000   TIME(PS) =    1000.000  TEMP(K) =   107.90  PRESS =     0.0
 Etot   =         2.3376  EKtot   =         1.9297  EPtot      =         1.6327
 BOND   =         1.0023  ANGLE   =         1.1482  DIHED      =         0.0897
 1-4 NB =         0.2028  1-4 EEL =         0.0013  VDWAALS    =         0.0000
 EELEC  =         0.0000  EHBOND  =         0.0000  RESTRAINT  =         0.0000
 DV/DL  =         0.1359
 ------------------------------------------------------------------------------

      A V E R A G E S   O V E R    1000 S T E P S

 NSTEP =   500000   TIME(PS) =    1000.000  TEMP(K) =   320.77  PRESS =     0.0
 Etot   =        18.1021  EKtot   =         5.7368  EPtot      =        12.3653
 BOND   =         1.2996  ANGLE   =         5.3413  DIHED      =         5.3015
 1-4 NB =         0.3984  1-4 EEL =         0.0967  VDWAALS    =        -0.0001
 EELEC  =        -0.0720  EHBOND  =         0.0000  RESTRAINT  =         0.0000
 DV/DL  =        -2.6755
 ------------------------------------------------------------------------------

      R M S  F L U C T U A T I O N S

 NSTEP =   500000   TIME(PS) =    1000.000  TEMP(K) =   107.90  PRESS =     0.0
 Etot   =         2.3376  EKtot   =         1.9297  EPtot      =         1.6327
 BOND   =         1.0023  ANGLE   =         1.1482  DIHED      =         0.0897
 1-4 NB =         0.2028  1-4 EEL =         0.0013  VDWAALS    =         0.0000
 EELEC  =         0.0000  EHBOND  =         0.0000  RESTRAINT  =         0.0000
 DV/DL  =         0.1359
 ------------------------------------------------------------------------------

      DV/DL, AVERAGES OVER    1000 STEPS

 NSTEP =   500000   TIME(PS) =    1000.000  TEMP(K) =   107.90  PRESS =     0.0
 Etot   =         0.0000  EKtot   =         0.0000  EPtot      =        -2.6755
 BOND   =         0.0000  ANGLE   =         0.0000  DIHED      =         0.0000
 1-4 NB =         0.0000  1-4 EEL =       -10.4838  VDWAALS    =         0.0000
 EELEC  =         7.8083  EHBOND  =         0.0000  RESTRAINT  =         0.0000
 DV/DL  =        -2.6755
 ------------------------------------------------------------------------------

      A V E R A G E S   O V E R  500000 S T E P S

 NSTEP =   500000   TIME(PS) =    1000.000  TEMP(K) =   296.92  PRESS =     0.0
 Etot   =        17.0854  EKtot   =         5.3103  EPtot      =        11.7750
 BOND   =         0.9579  ANGLE   =         5.1137  DIHED      =         5.2787
 1-4 NB =         0.4003  1-4 EEL =         0.0966  VDWAALS    =        -0.0001
 EELEC  =        -0.0720  EHBOND  =         0.0000  RESTRAINT  =         0.0000
 DV/DL  =        -2.6680
 ------------------------------------------------------------------------------

      R M S  F L U C T U A T I O N S

 NSTEP =   500000   TIME(PS) =    1000.000  TEMP(K) =    98.16  PRESS =     0.0
 Etot   =         2.2854  EKtot   =         1.7556  EPtot      =         1.4597
 BOND   =         0.7809  ANGLE   =         1.1870  DIHED      =         0.0876
 1-4 NB =         0.2219  1-4 EEL =         0.0015  VDWAALS    =         0.0000
 EELEC  =         0.0000  EHBOND  =         0.0000  RESTRAINT  =         0.0000
 DV/DL  =         0.1649
 ------------------------------------------------------------------------------

      A V E R A G E S   O V E R  500000 S T E P S

 NSTEP =   500000   TIME(PS) =    1000.000  TEMP(K) =   296.92  PRESS =     0.0
 Etot   =        17.0854  EKtot   =         5.3103  EPtot      =        11.7750
 BOND   =         0.9579  ANGLE   =         5.1137  DIHED      =         5.2787
 1-4 NB =         0.4003  1-4 EEL =         0.0966  VDWAALS    =        -0.0001
 EELEC  =        -0.0720  EHBOND  =         0.0000  RESTRAINT  =         0.0000
 DV/DL  =        -2.6680
 ------------------------------------------------------------------------------

      R M S  F L U C T U A T I O N S

 NSTEP =   500000   TIME(PS) =    1000.000  TEMP(K) =    98.16  PRESS =     0.0
 Etot   =         2.2854  EKtot   =         1.7556  EPtot      =         1.4597
 BOND   =         0.7809  ANGLE   =         1.1870  DIHED      =         0.0876
 1-4 NB =         0.2219  1-4 EEL =         0.0015  VDWAALS    =         0.0000
 EELEC  =         0.0000  EHBOND  =         0.0000  RESTRAINT  =         0.0000
 DV/DL  =         0.1649
 ------------------------------------------------------------------------------

      DV/DL, AVERAGES OVER  500000 STEPS

 NSTEP =   500000   TIME(PS) =    1000.000  TEMP(K) =    98.16  PRESS =     0.0
 Etot   =         0.0000  EKtot   =         0.0000  EPtot      =        -2.6680
 BOND   =         0.0000  ANGLE   =         0.0000  DIHED      =         0.0000
 1-4 NB =         0.0000  1-4 EEL =       -10.4756  VDWAALS    =         0.0000
 EELEC  =         7.8076  EHBOND  =         0.0000  RESTRAINT  =         0.0000
 DV/DL  =        -2.6680
 ------------------------------------------------------------------------------
