-------------------------------------------------------
          Amber 20 PMEMD                              2020
          -------------------------------------------------------

  [-O]verwriting output

File Assignments:

 Here is the input file:

 &cntrl
   nstlim=500000, nscm=1000,
   ntx=5, irest=1, ntpr=1000,
   tempi=300.0, temp0=300.0, ntt=3, gamma_ln=2.0,
   ntp=1, pres0=1.01325, taup=5.0,
   ntb=2, igb=0, cut=10.0,
   dt=0.002, ig=-1,
   ntc=2, ntf=2,
   iwrap=0,
   ntwr=1000, ntwx=50000, ntave=1000,
   ioutfm=1, ntwv=-1,
   ifsc = 0, icfe=1,
   clambda=0.88495,
   timask1=':1',
   timask2=':2', crgmask = ':2',
/

Note: ig = -1. Setting random seed to   544596 based on wallclock time in
      microseconds.

--------------------------------------------------------------------------------
   1.  RESOURCE   USE:
--------------------------------------------------------------------------------

 getting box info from netcdf restart file
 NATOM  =   20855 NTYPES =       6 NBONH =   20847 MBONA  =       6
 NTHETH =      12 MTHETA =       6 NPHIH =      24 MPHIA  =       2
 NHPARM =       0 NPARM  =       0 NNB   =   27832 NRES   =    6949
 NBONA  =       6 NTHETA =       6 NPHIA =       2 NUMBND =       5
 NUMANG =       4 NPTRA  =       3 NATYP =       6 NPHB   =       1
 IFBOX  =       2 NMXRS  =       7 IFCAP =       0 NEXTRA =       0
 NCOPY  =       0

     BOX TYPE: TRUNCATED OCTAHEDRON

--------------------------------------------------------------------------------
   2.  CONTROL  DATA  FOR  THE  RUN
--------------------------------------------------------------------------------

default_name

General flags:
     imin    =       0, nmropt  =       0

Nature and format of input:
     ntx     =       5, irest   =       1, ntrx    =       1

Nature and format of output:
     ntxo    =       2, ntpr    =    1000, ntrx    =       1, ntwr    =    1000
     iwrap   =       0, ntwx    =   50000, ntwv    =      -1, ntwe    =       0
     ioutfm  =       1, ntwprt  =       0, idecomp =       0, rbornstat=      0

Potential function:
     ntf     =       2, ntb     =       2, igb     =       0, nsnb    =      25
     ipol    =       0, gbsa    =       0, iesp    =       0
     dielc   =   1.00000, cut     =  10.00000, intdiel =   1.00000

Frozen or restrained atoms:
     ibelly  =       0, ntr     =       0

Molecular dynamics:
     nstlim  =    500000, nscm    =      1000, nrespa  =         1
     t       =   0.00000, dt      =   0.00200, vlimit  =  -1.00000

Langevin dynamics temperature regulation:
     ig      =  544596
     temp0   = 300.00000, tempi   = 300.00000, gamma_ln=   2.00000

Pressure regulation:
     ntp     =       1
     pres0   =   1.01325, comp    =  44.60000, taup    =   5.00000

SHAKE:
     ntc     =       2, jfastw  =       0
     tol     =   0.00001

Free energy options:
     icfe    =       1, ifsc    =       0, klambda =       1
     clambda =  0.8850, scalpha =  0.5000, scbeta  = 12.0000
     sceeorder =       2
     dynlmb =  0.0000 logdvdl =       0

Ewald parameters:
     verbose =       0, ew_type =       0, nbflag  =       1, use_pme =       1
     vdwmeth =       1, eedmeth =       1, netfrc  =       1
     Box X =   66.953   Box Y =   66.953   Box Z =   66.953
     Alpha =  109.471   Beta  =  109.471   Gamma =  109.471
     NFFT1 =   64       NFFT2 =   64       NFFT3 =   64
     Cutoff=   10.000   Tol   =0.100E-04
     Ewald Coefficient =  0.27511
     Interpolation order =    4
     TI Mask 1 :1; matches      7 atoms
     TI Mask 2 :2; matches      7 atoms
     TI region 1:   20848 atoms
     TI region 2:   20848 atoms
Removing charge of      -0.8188 from atom       8
Removing charge of      -0.8188 from atom       9
Removing charge of       0.8054 from atom      10
Removing charge of      -0.1021 from atom      11
Removing charge of      -0.0219 from atom      12
Removing charge of      -0.0219 from atom      13
Removing charge of      -0.0219 from atom      14
Total charge of  -0.99999900 removed from       7 atoms
     Checking for mismatched coordinates.

--------------------------------------------------------------------------------
   3.  ATOMIC COORDINATES AND VELOCITIES
--------------------------------------------------------------------------------

default_name
 begin time read from input coords =   200.000 ps

 Number of triangulated 3-point waters found:     6947

     Sum of charges for TI region  1 =  -0.99999900
     Skip neutralizing charges...

     Sum of charges for TI region  2 =   0.00000000
     Skip neutralizing charges...

--------------------------------------------------------------------------------
   4.  RESULTS
 NSTEP =     1000   TIME(PS) =     202.000  TEMP(K) =   300.36  PRESS =  -746.6
 Etot   =    -52855.4265  EKtot   =     12444.7197  EPtot      =    -65300.1462
 BOND   =         1.6404  ANGLE   =         4.4253  DIHED      =         5.3177
 1-4 NB =         1.2470  1-4 EEL =         1.2687  VDWAALS    =      9613.7373
 EELEC  =    -74927.7825  EHBOND  =         0.0000  RESTRAINT  =         0.0000
 EKCMT  =      6303.7288  VIRIAL  =      9973.2174  VOLUME     =    227647.5082
                                                    Density    =         0.9134
 DV/DL  =        27.0191
 ------------------------------------------------------------------------------

      A V E R A G E S   O V E R    1000 S T E P S

 NSTEP =     1000   TIME(PS) =     202.000  TEMP(K) =   299.57  PRESS =  -828.2
 Etot   =    -52772.8231  EKtot   =     12412.0936  EPtot      =    -65184.9167
 BOND   =         0.9907  ANGLE   =         4.4361  DIHED      =         5.2527
 1-4 NB =         0.4537  1-4 EEL =         1.2104  VDWAALS    =      9560.8126
 EELEC  =    -74758.0729  EHBOND  =         0.0000  RESTRAINT  =         0.0000
 EKCMT  =      6233.1721  VIRIAL  =     10334.2573  VOLUME     =    229312.0165
                                                    Density    =         0.9068
 DV/DL  =        18.4894
 ------------------------------------------------------------------------------

      R M S  F L U C T U A T I O N S

 NSTEP =     1000   TIME(PS) =     202.000  TEMP(K) =     1.76  PRESS =    89.7
 Etot   =        81.7896  EKtot   =        72.8439  EPtot      =        86.1647
 BOND   =         0.6378  ANGLE   =         0.7340  DIHED      =         0.0448
 1-4 NB =         0.2426  1-4 EEL =         0.0171  VDWAALS    =        84.3144
 EELEC  =       114.1693  EHBOND  =         0.0000  RESTRAINT  =         0.0000
 EKCMT  =        58.2959  VIRIAL  =       447.0534  VOLUME     =       974.1447
                                                    Density    =         0.0039
 DV/DL  =         9.7130
 ------------------------------------------------------------------------------

      A V E R A G E S   O V E R    1000 S T E P S

 NSTEP =     1000   TIME(PS) =     202.000  TEMP(K) =   299.57  PRESS =  -828.2
 Etot   =    -52772.8231  EKtot   =     12412.0936  EPtot      =    -65184.9167
 BOND   =         0.9907  ANGLE   =         4.4361  DIHED      =         5.2527
 1-4 NB =         0.4537  1-4 EEL =         1.2104  VDWAALS    =      9560.8126
 EELEC  =    -74758.0729  EHBOND  =         0.0000  RESTRAINT  =         0.0000
 EKCMT  =      6233.1721  VIRIAL  =     10334.2573  VOLUME     =    229312.0165
                                                    Density    =         0.9068
 DV/DL  =        18.4894
 ------------------------------------------------------------------------------

      R M S  F L U C T U A T I O N S

 NSTEP =     1000   TIME(PS) =     202.000  TEMP(K) =     1.76  PRESS =    89.7
 Etot   =        81.7896  EKtot   =        72.8439  EPtot      =        86.1647
 BOND   =         0.6378  ANGLE   =         0.7340  DIHED      =         0.0448
 1-4 NB =         0.2426  1-4 EEL =         0.0171  VDWAALS    =        84.3144
 EELEC  =       114.1693  EHBOND  =         0.0000  RESTRAINT  =         0.0000
 EKCMT  =        58.2959  VIRIAL  =       447.0534  VOLUME     =       974.1447
                                                    Density    =         0.0039
 DV/DL  =         9.7130
 ------------------------------------------------------------------------------

      DV/DL, AVERAGES OVER    1000 STEPS

 NSTEP =     1000   TIME(PS) =     202.000  TEMP(K) =     1.76  PRESS =     0.0
 Etot   =         0.0000  EKtot   =         0.0000  EPtot      =        18.4894
 BOND   =         0.0000  ANGLE   =         0.0000  DIHED      =         0.0000
 1-4 NB =         0.0000  1-4 EEL =       -10.5203  VDWAALS    =         0.0000
 EELEC  =        29.0096  EHBOND  =         0.0000  RESTRAINT  =         0.0000
 EKCMT  =         0.0000  VIRIAL  =         0.0000  VOLUME     =         0.0000
                                                    Density    =         0.0000
 DV/DL  =        18.4894
 ------------------------------------------------------------------------------

      A V E R A G E S   O V E R    1000 S T E P S

 NSTEP =     2000   TIME(PS) =     204.000  TEMP(K) =   300.61  PRESS =  -690.0
 Etot   =    -52855.6755  EKtot   =     12455.1483  EPtot      =    -65310.8237
 BOND   =         0.6862  ANGLE   =         4.1879  DIHED      =         5.2786
 1-4 NB =         0.4493  1-4 EEL =         1.2106  VDWAALS    =      9596.1038
 EELEC  =    -74918.7402  EHBOND  =         0.0000  RESTRAINT  =         0.0000
 EKCMT  =      6283.5969  VIRIAL  =      9654.2375  VOLUME     =    226203.4092
                                                    Density    =         0.9192
 DV/DL  =        22.3573
 ------------------------------------------------------------------------------

      R M S  F L U C T U A T I O N S

 NSTEP =     2000   TIME(PS) =     204.000  TEMP(K) =     1.59  PRESS =   103.3
 Etot   =        61.4664  EKtot   =        65.7910  EPtot      =        84.8556
 BOND   =         0.5305  ANGLE   =         0.7439  DIHED      =         0.0829
 1-4 NB =         0.2279  1-4 EEL =         0.0183  VDWAALS    =        98.0180
 EELEC  =       140.4778  EHBOND  =         0.0000  RESTRAINT  =         0.0000
 EKCMT  =        47.2663  VIRIAL  =       515.7682  VOLUME     =       817.3629
                                                    Density    =         0.0033
 DV/DL  =         8.6257
 ------------------------------------------------------------------------------

      A V E R A G E S   O V E R    1000 S T E P S

 NSTEP =     2000   TIME(PS) =     204.000  TEMP(K) =   300.61  PRESS =  -690.0
 Etot   =    -52855.6755  EKtot   =     12455.1483  EPtot      =    -65310.8237
 BOND   =         0.6862  ANGLE   =         4.1879  DIHED      =         5.2786
 1-4 NB =         0.4493  1-4 EEL =         1.2106  VDWAALS    =      9596.1038
 EELEC  =    -74918.7402  EHBOND  =         0.0000  RESTRAINT  =         0.0000
 EKCMT  =      6283.5969  VIRIAL  =      9654.2375  VOLUME     =    226203.4092
                                                    Density    =         0.9192
 DV/DL  =        22.3573
 ------------------------------------------------------------------------------

      R M S  F L U C T U A T I O N S

 NSTEP =     2000   TIME(PS) =     204.000  TEMP(K) =     1.59  PRESS =   103.3
 Etot   =        61.4664  EKtot   =        65.7910  EPtot      =        84.8556
 BOND   =         0.5305  ANGLE   =         0.7439  DIHED      =         0.0829
 1-4 NB =         0.2279  1-4 EEL =         0.0183  VDWAALS    =        98.0180
 EELEC  =       140.4778  EHBOND  =         0.0000  RESTRAINT  =         0.0000
 EKCMT  =        47.2663  VIRIAL  =       515.7682  VOLUME     =       817.3629
                                                    Density    =         0.0033
 DV/DL  =         8.6257
 ------------------------------------------------------------------------------

      DV/DL, AVERAGES OVER    1000 STEPS

 NSTEP =     2000   TIME(PS) =     204.000  TEMP(K) =     1.59  PRESS =     0.0
 Etot   =         0.0000  EKtot   =         0.0000  EPtot      =        22.3573
 BOND   =         0.0000  ANGLE   =         0.0000  DIHED      =         0.0000
 1-4 NB =         0.0000  1-4 EEL =       -10.5225  VDWAALS    =         0.0000
 EELEC  =        32.8798  EHBOND  =         0.0000  RESTRAINT  =         0.0000
 EKCMT  =         0.0000  VIRIAL  =         0.0000  VOLUME     =         0.0000
                                                    Density    =         0.0000
 DV/DL  =        22.3573
 ------------------------------------------------------------------------------

      A V E R A G E S   O V E R    1000 S T E P S

 NSTEP =   500000   TIME(PS) =    1200.000  TEMP(K) =   299.81  PRESS =   -25.1
 Etot   =    -53826.3073  EKtot   =     12422.1810  EPtot      =    -66248.4883
 BOND   =         0.7438  ANGLE   =         5.1692  DIHED      =         5.2700
 1-4 NB =         0.4985  1-4 EEL =         1.2110  VDWAALS    =      9877.8060
 EELEC  =    -76139.1866  EHBOND  =         0.0000  RESTRAINT  =         0.0000
 EKCMT  =      6244.9652  VIRIAL  =      6359.8638  VOLUME     =    211569.7306
                                                    Density    =         0.9828
 DV/DL  =        20.8398
 ------------------------------------------------------------------------------

      R M S  F L U C T U A T I O N S

 NSTEP =   500000   TIME(PS) =    1200.000  TEMP(K) =     1.78  PRESS =    89.4
 Etot   =        61.6860  EKtot   =        73.6538  EPtot      =        72.3543
 BOND   =         0.6212  ANGLE   =         0.9461  DIHED      =         0.0691
 1-4 NB =         0.3051  1-4 EEL =         0.0199  VDWAALS    =        79.3828
 EELEC  =       110.3327  EHBOND  =         0.0000  RESTRAINT  =         0.0000
 EKCMT  =        55.1481  VIRIAL  =       412.7588  VOLUME     =        26.2696
                                                    Density    =         0.0001
 DV/DL  =         8.1227
 ------------------------------------------------------------------------------

      A V E R A G E S   O V E R    1000 S T E P S

 NSTEP =   500000   TIME(PS) =    1200.000  TEMP(K) =   299.81  PRESS =   -25.1
 Etot   =    -53826.3073  EKtot   =     12422.1810  EPtot      =    -66248.4883
 BOND   =         0.7438  ANGLE   =         5.1692  DIHED      =         5.2700
 1-4 NB =         0.4985  1-4 EEL =         1.2110  VDWAALS    =      9877.8060
 EELEC  =    -76139.1866  EHBOND  =         0.0000  RESTRAINT  =         0.0000
 EKCMT  =      6244.9652  VIRIAL  =      6359.8638  VOLUME     =    211569.7306
                                                    Density    =         0.9828
 DV/DL  =        20.8398
 ------------------------------------------------------------------------------

      R M S  F L U C T U A T I O N S

 NSTEP =   500000   TIME(PS) =    1200.000  TEMP(K) =     1.78  PRESS =    89.4
 Etot   =        61.6860  EKtot   =        73.6538  EPtot      =        72.3543
 BOND   =         0.6212  ANGLE   =         0.9461  DIHED      =         0.0691
 1-4 NB =         0.3051  1-4 EEL =         0.0199  VDWAALS    =        79.3828
 EELEC  =       110.3327  EHBOND  =         0.0000  RESTRAINT  =         0.0000
 EKCMT  =        55.1481  VIRIAL  =       412.7588  VOLUME     =        26.2696
                                                    Density    =         0.0001
 DV/DL  =         8.1227
 ------------------------------------------------------------------------------

      DV/DL, AVERAGES OVER    1000 STEPS

 NSTEP =   500000   TIME(PS) =    1200.000  TEMP(K) =     1.78  PRESS =     0.0
 Etot   =         0.0000  EKtot   =         0.0000  EPtot      =        20.8398
 BOND   =         0.0000  ANGLE   =         0.0000  DIHED      =         0.0000
 1-4 NB =         0.0000  1-4 EEL =       -10.5255  VDWAALS    =         0.0000
 EELEC  =        31.3653  EHBOND  =         0.0000  RESTRAINT  =         0.0000
 EKCMT  =         0.0000  VIRIAL  =         0.0000  VOLUME     =         0.0000
                                                    Density    =         0.0000
 DV/DL  =        20.8398
 ------------------------------------------------------------------------------

      A V E R A G E S   O V E R  500000 S T E P S

 NSTEP =   500000   TIME(PS) =    1200.000  TEMP(K) =   300.10  PRESS =    -8.9
 Etot   =    -53811.6249  EKtot   =     12433.9913  EPtot      =    -66245.6163
 BOND   =         0.9491  ANGLE   =         5.1678  DIHED      =         5.2796
 1-4 NB =         0.4859  1-4 EEL =         1.2107  VDWAALS    =      9904.5974
 EELEC  =    -76163.3068  EHBOND  =         0.0000  RESTRAINT  =         0.0000
 EKCMT  =      6236.1160  VIRIAL  =      6278.6342  VOLUME     =    211730.8618
                                                    Density    =         0.9821
 DV/DL  =        21.4619
 ------------------------------------------------------------------------------

      R M S  F L U C T U A T I O N S

 NSTEP =   500000   TIME(PS) =    1200.000  TEMP(K) =     2.05  PRESS =   146.3
 Etot   =       165.5997  EKtot   =        85.0620  EPtot      =       143.8062
 BOND   =         0.7705  ANGLE   =         1.1991  DIHED      =         0.0896
 1-4 NB =         0.2880  1-4 EEL =         0.0202  VDWAALS    =       126.7739
 EELEC  =       220.2504  EHBOND  =         0.0000  RESTRAINT  =         0.0000
 EKCMT  =        60.7293  VIRIAL  =       676.2605  VOLUME     =      1375.0020
                                                    Density    =         0.0060
 DV/DL  =         9.1831
 ------------------------------------------------------------------------------

      A V E R A G E S   O V E R  500000 S T E P S

 NSTEP =   500000   TIME(PS) =    1200.000  TEMP(K) =   300.10  PRESS =    -8.9
 Etot   =    -53811.6249  EKtot   =     12433.9913  EPtot      =    -66245.6163
 BOND   =         0.9491  ANGLE   =         5.1678  DIHED      =         5.2796
 1-4 NB =         0.4859  1-4 EEL =         1.2107  VDWAALS    =      9904.5974
 EELEC  =    -76163.3068  EHBOND  =         0.0000  RESTRAINT  =         0.0000
 EKCMT  =      6236.1160  VIRIAL  =      6278.6342  VOLUME     =    211730.8618
                                                    Density    =         0.9821
 DV/DL  =        21.4619
 ------------------------------------------------------------------------------

      R M S  F L U C T U A T I O N S

 NSTEP =   500000   TIME(PS) =    1200.000  TEMP(K) =     2.05  PRESS =   146.3
 Etot   =       165.5997  EKtot   =        85.0620  EPtot      =       143.8062
 BOND   =         0.7705  ANGLE   =         1.1991  DIHED      =         0.0896
 1-4 NB =         0.2880  1-4 EEL =         0.0202  VDWAALS    =       126.7739
 EELEC  =       220.2504  EHBOND  =         0.0000  RESTRAINT  =         0.0000
 EKCMT  =        60.7293  VIRIAL  =       676.2605  VOLUME     =      1375.0020
                                                    Density    =         0.0060
 DV/DL  =         9.1831
 ------------------------------------------------------------------------------

      DV/DL, AVERAGES OVER  500000 STEPS

 NSTEP =   500000   TIME(PS) =    1200.000  TEMP(K) =     2.05  PRESS =     0.0
 Etot   =         0.0000  EKtot   =         0.0000  EPtot      =        21.4619
 BOND   =         0.0000  ANGLE   =         0.0000  DIHED      =         0.0000
 1-4 NB =         0.0000  1-4 EEL =       -10.5233  VDWAALS    =         0.0000
 EELEC  =        31.9852  EHBOND  =         0.0000  RESTRAINT  =         0.0000
 EKCMT  =         0.0000  VIRIAL  =         0.0000  VOLUME     =         0.0000
                                                    Density    =         0.0000
 DV/DL  =        21.4619
 ------------------------------------------------------------------------------
