-------------------------------------------------------
          Amber 20 PMEMD                              2020
          -------------------------------------------------------

  [-O]verwriting output

File Assignments:

 Here is the input file:

 &cntrl
   nstlim=500000, nscm=1000,
   ntx=1, irest=0, ntpr=1000,
   tempi=300.0, temp0=300.0, ntt=3, gamma_ln=2.0,

   ntb=1, igb=0, cut=10.0,
   dt=0.002, ig=-1,
   ntc=2, ntf=2,
   iwrap=0,
   ntwr=1000, ntwx=50000, ntave=1000,
   ioutfm=1, ntwv=-1,
   ifsc = 0, icfe=1,
   clambda=0.68392,
   timask1=':1',
   timask2=':2', crgmask = ':2',
/

Note: ig = -1. Setting random seed to   423014 based on wallclock time in
      microseconds.

--------------------------------------------------------------------------------
   1.  RESOURCE   USE:
--------------------------------------------------------------------------------

 getting box info from netcdf restart file
 NATOM  =      14 NTYPES =       6 NBONH =       6 MBONA  =       6
 NTHETH =      12 MTHETA =       6 NPHIH =      24 MPHIA  =       2
 NHPARM =       0 NPARM  =       0 NNB   =      44 NRES   =       2
 NBONA  =       6 NTHETA =       6 NPHIA =       2 NUMBND =       3
 NUMANG =       4 NPTRA  =       3 NATYP =       6 NPHB   =       1
 IFBOX  =       2 NMXRS  =       7 IFCAP =       0 NEXTRA =       0
 NCOPY  =       0

     BOX TYPE: TRUNCATED OCTAHEDRON

--------------------------------------------------------------------------------
   2.  CONTROL  DATA  FOR  THE  RUN
--------------------------------------------------------------------------------

default_name

General flags:
     imin    =       0, nmropt  =       0

Nature and format of input:
     ntx     =       1, irest   =       0, ntrx    =       1

Nature and format of output:
     ntxo    =       2, ntpr    =    1000, ntrx    =       1, ntwr    =    1000
     iwrap   =       0, ntwx    =   50000, ntwv    =      -1, ntwe    =       0
     ioutfm  =       1, ntwprt  =       0, idecomp =       0, rbornstat=      0

Potential function:
     ntf     =       2, ntb     =       1, igb     =       0, nsnb    =      25
     ipol    =       0, gbsa    =       0, iesp    =       0
     dielc   =   1.00000, cut     =  10.00000, intdiel =   1.00000

Frozen or restrained atoms:
     ibelly  =       0, ntr     =       0

Molecular dynamics:
     nstlim  =    500000, nscm    =      1000, nrespa  =         1
     t       =   0.00000, dt      =   0.00200, vlimit  =  -1.00000

Langevin dynamics temperature regulation:
     ig      =  423014
     temp0   = 300.00000, tempi   = 300.00000, gamma_ln=   2.00000

SHAKE:
     ntc     =       2, jfastw  =       0
     tol     =   0.00001

Free energy options:
     icfe    =       1, ifsc    =       0, klambda =       1
     clambda =  0.6839, scalpha =  0.5000, scbeta  = 12.0000
     sceeorder =       2
     dynlmb =  0.0000 logdvdl =       0

Ewald parameters:
     verbose =       0, ew_type =       0, nbflag  =       1, use_pme =       1
     vdwmeth =       1, eedmeth =       1, netfrc  =       1
     Box X =   66.953   Box Y =   66.953   Box Z =   66.953
     Alpha =  109.471   Beta  =  109.471   Gamma =  109.471
     NFFT1 =   64       NFFT2 =   64       NFFT3 =   64
     Cutoff=   10.000   Tol   =0.100E-04
     Ewald Coefficient =  0.27511
     Interpolation order =    4
     TI Mask 1 :1; matches      7 atoms
     TI Mask 2 :2; matches      7 atoms
     TI region 1:       7 atoms
     TI region 2:       7 atoms
Removing charge of      -0.8188 from atom       8
Removing charge of      -0.8188 from atom       9
Removing charge of       0.8054 from atom      10
Removing charge of      -0.1021 from atom      11
Removing charge of      -0.0219 from atom      12
Removing charge of      -0.0219 from atom      13
Removing charge of      -0.0219 from atom      14
Total charge of  -0.99999900 removed from       7 atoms
     Checking for mismatched coordinates.

--------------------------------------------------------------------------------
   3.  ATOMIC COORDINATES AND VELOCITIES
--------------------------------------------------------------------------------

default_name
 begin time read from input coords =     0.000 ps

 Number of triangulated 3-point waters found:        0

     Sum of charges for TI region  1 =  -0.99999900
     Skip neutralizing charges...

     Sum of charges for TI region  2 =   0.00000000
     Skip neutralizing charges...

--------------------------------------------------------------------------------
   4.  RESULTS
 NSTEP =        0   TIME(PS) =       0.000  TEMP(K) =   348.55  PRESS =     0.0
 Etot   =        15.4046  EKtot   =         6.2337  EPtot      =         9.1709
 BOND   =         0.0156  ANGLE   =         2.7954  DIHED      =         5.2200
 1-4 NB =         0.3040  1-4 EEL =         3.3026  VDWAALS    =        -0.0001
 EELEC  =        -2.4666  EHBOND  =         0.0000  RESTRAINT  =         0.0000
 DV/DL  =        -2.6446
 ------------------------------------------------------------------------------

      A V E R A G E S   O V E R    1000 S T E P S

 NSTEP =     1000   TIME(PS) =       2.000  TEMP(K) =   267.66  PRESS =     0.0
 Etot   =        17.1512  EKtot   =         4.7870  EPtot      =        12.3642
 BOND   =         0.9457  ANGLE   =         4.9440  DIHED      =         5.2563
 1-4 NB =         0.3798  1-4 EEL =         3.3062  VDWAALS    =        -0.0001
 EELEC  =        -2.4678  EHBOND  =         0.0000  RESTRAINT  =         0.0000
 DV/DL  =        -2.6526
 ------------------------------------------------------------------------------

      R M S  F L U C T U A T I O N S

 NSTEP =     1000   TIME(PS) =       2.000  TEMP(K) =    68.84  PRESS =     0.0
 Etot   =         1.1203  EKtot   =         1.2312  EPtot      =         1.0896
 BOND   =         0.7306  ANGLE   =         0.9435  DIHED      =         0.0558
 1-4 NB =         0.2125  1-4 EEL =         0.0535  VDWAALS    =         0.0000
 EELEC  =         0.0008  EHBOND  =         0.0000  RESTRAINT  =         0.0000
 DV/DL  =         0.1692
 ------------------------------------------------------------------------------

      A V E R A G E S   O V E R    1000 S T E P S

 NSTEP =     1000   TIME(PS) =       2.000  TEMP(K) =   267.66  PRESS =     0.0
 Etot   =        17.1512  EKtot   =         4.7870  EPtot      =        12.3642
 BOND   =         0.9457  ANGLE   =         4.9440  DIHED      =         5.2563
 1-4 NB =         0.3798  1-4 EEL =         3.3062  VDWAALS    =        -0.0001
 EELEC  =        -2.4678  EHBOND  =         0.0000  RESTRAINT  =         0.0000
 DV/DL  =        -2.6526
 ------------------------------------------------------------------------------

      R M S  F L U C T U A T I O N S

 NSTEP =     1000   TIME(PS) =       2.000  TEMP(K) =    68.84  PRESS =     0.0
 Etot   =         1.1203  EKtot   =         1.2312  EPtot      =         1.0896
 BOND   =         0.7306  ANGLE   =         0.9435  DIHED      =         0.0558
 1-4 NB =         0.2125  1-4 EEL =         0.0535  VDWAALS    =         0.0000
 EELEC  =         0.0008  EHBOND  =         0.0000  RESTRAINT  =         0.0000
 DV/DL  =         0.1692
 ------------------------------------------------------------------------------

      DV/DL, AVERAGES OVER    1000 STEPS

 NSTEP =     1000   TIME(PS) =       2.000  TEMP(K) =    68.84  PRESS =     0.0
 Etot   =         0.0000  EKtot   =         0.0000  EPtot      =        -2.6526
 BOND   =         0.0000  ANGLE   =         0.0000  DIHED      =         0.0000
 1-4 NB =         0.0000  1-4 EEL =       -10.4600  VDWAALS    =         0.0000
 EELEC  =         7.8074  EHBOND  =         0.0000  RESTRAINT  =         0.0000
 DV/DL  =        -2.6526
 ------------------------------------------------------------------------------

      A V E R A G E S   O V E R    1000 S T E P S

 NSTEP =     2000   TIME(PS) =       4.000  TEMP(K) =   283.82  PRESS =     0.0
 Etot   =        17.3175  EKtot   =         5.0761  EPtot      =        12.2413
 BOND   =         0.8416  ANGLE   =         4.9009  DIHED      =         5.2745
 1-4 NB =         0.3847  1-4 EEL =         3.3077  VDWAALS    =        -0.0001
 EELEC  =        -2.4680  EHBOND  =         0.0000  RESTRAINT  =         0.0000
 DV/DL  =        -2.6564
 ------------------------------------------------------------------------------

      R M S  F L U C T U A T I O N S

 NSTEP =     2000   TIME(PS) =       4.000  TEMP(K) =    73.94  PRESS =     0.0
 Etot   =         1.5021  EKtot   =         1.3223  EPtot      =         1.2705
 BOND   =         0.6837  ANGLE   =         1.0738  DIHED      =         0.0682
 1-4 NB =         0.2140  1-4 EEL =         0.0507  VDWAALS    =         0.0000
 EELEC  =         0.0009  EHBOND  =         0.0000  RESTRAINT  =         0.0000
 DV/DL  =         0.1603
 ------------------------------------------------------------------------------

      A V E R A G E S   O V E R    1000 S T E P S

 NSTEP =     2000   TIME(PS) =       4.000  TEMP(K) =   283.82  PRESS =     0.0
 Etot   =        17.3175  EKtot   =         5.0761  EPtot      =        12.2413
 BOND   =         0.8416  ANGLE   =         4.9009  DIHED      =         5.2745
 1-4 NB =         0.3847  1-4 EEL =         3.3077  VDWAALS    =        -0.0001
 EELEC  =        -2.4680  EHBOND  =         0.0000  RESTRAINT  =         0.0000
 DV/DL  =        -2.6564
 ------------------------------------------------------------------------------

      R M S  F L U C T U A T I O N S

 NSTEP =     2000   TIME(PS) =       4.000  TEMP(K) =    73.94  PRESS =     0.0
 Etot   =         1.5021  EKtot   =         1.3223  EPtot      =         1.2705
 BOND   =         0.6837  ANGLE   =         1.0738  DIHED      =         0.0682
 1-4 NB =         0.2140  1-4 EEL =         0.0507  VDWAALS    =         0.0000
 EELEC  =         0.0009  EHBOND  =         0.0000  RESTRAINT  =         0.0000
 DV/DL  =         0.1603
 ------------------------------------------------------------------------------

      DV/DL, AVERAGES OVER    1000 STEPS

 NSTEP =     2000   TIME(PS) =       4.000  TEMP(K) =    73.94  PRESS =     0.0
 Etot   =         0.0000  EKtot   =         0.0000  EPtot      =        -2.6564
 BOND   =         0.0000  ANGLE   =         0.0000  DIHED      =         0.0000
 1-4 NB =         0.0000  1-4 EEL =       -10.4647  VDWAALS    =         0.0000
 EELEC  =         7.8082  EHBOND  =         0.0000  RESTRAINT  =         0.0000
 DV/DL  =        -2.6564
 ------------------------------------------------------------------------------

      A V E R A G E S   O V E R    1000 S T E P S

 NSTEP =   500000   TIME(PS) =    1000.000  TEMP(K) =   276.14  PRESS =     0.0
 Etot   =        17.6496  EKtot   =         4.9386  EPtot      =        12.7110
 BOND   =         0.9225  ANGLE   =         5.2939  DIHED      =         5.2648
 1-4 NB =         0.3906  1-4 EEL =         3.3075  VDWAALS    =        -0.0001
 EELEC  =        -2.4681  EHBOND  =         0.0000  RESTRAINT  =         0.0000
 DV/DL  =        -2.6554
 ------------------------------------------------------------------------------

      R M S  F L U C T U A T I O N S

 NSTEP =   500000   TIME(PS) =    1000.000  TEMP(K) =    69.36  PRESS =     0.0
 Etot   =         1.5322  EKtot   =         1.2404  EPtot      =         1.2738
 BOND   =         0.7068  ANGLE   =         1.0269  DIHED      =         0.0657
 1-4 NB =         0.1895  1-4 EEL =         0.0405  VDWAALS    =         0.0000
 EELEC  =         0.0007  EHBOND  =         0.0000  RESTRAINT  =         0.0000
 DV/DL  =         0.1281
 ------------------------------------------------------------------------------

      A V E R A G E S   O V E R    1000 S T E P S

 NSTEP =   500000   TIME(PS) =    1000.000  TEMP(K) =   276.14  PRESS =     0.0
 Etot   =        17.6496  EKtot   =         4.9386  EPtot      =        12.7110
 BOND   =         0.9225  ANGLE   =         5.2939  DIHED      =         5.2648
 1-4 NB =         0.3906  1-4 EEL =         3.3075  VDWAALS    =        -0.0001
 EELEC  =        -2.4681  EHBOND  =         0.0000  RESTRAINT  =         0.0000
 DV/DL  =        -2.6554
 ------------------------------------------------------------------------------

      R M S  F L U C T U A T I O N S

 NSTEP =   500000   TIME(PS) =    1000.000  TEMP(K) =    69.36  PRESS =     0.0
 Etot   =         1.5322  EKtot   =         1.2404  EPtot      =         1.2738
 BOND   =         0.7068  ANGLE   =         1.0269  DIHED      =         0.0657
 1-4 NB =         0.1895  1-4 EEL =         0.0405  VDWAALS    =         0.0000
 EELEC  =         0.0007  EHBOND  =         0.0000  RESTRAINT  =         0.0000
 DV/DL  =         0.1281
 ------------------------------------------------------------------------------

      DV/DL, AVERAGES OVER    1000 STEPS

 NSTEP =   500000   TIME(PS) =    1000.000  TEMP(K) =    69.36  PRESS =     0.0
 Etot   =         0.0000  EKtot   =         0.0000  EPtot      =        -2.6554
 BOND   =         0.0000  ANGLE   =         0.0000  DIHED      =         0.0000
 1-4 NB =         0.0000  1-4 EEL =       -10.4640  VDWAALS    =         0.0000
 EELEC  =         7.8086  EHBOND  =         0.0000  RESTRAINT  =         0.0000
 DV/DL  =        -2.6554
 ------------------------------------------------------------------------------

      A V E R A G E S   O V E R  500000 S T E P S

 NSTEP =   500000   TIME(PS) =    1000.000  TEMP(K) =   301.24  PRESS =     0.0
 Etot   =        18.0139  EKtot   =         5.3876  EPtot      =        12.6263
 BOND   =         0.9782  ANGLE   =         5.1466  DIHED      =         5.2777
 1-4 NB =         0.3850  1-4 EEL =         3.3068  VDWAALS    =        -0.0001
 EELEC  =        -2.4678  EHBOND  =         0.0000  RESTRAINT  =         0.0000
 DV/DL  =        -2.6544
 ------------------------------------------------------------------------------

      R M S  F L U C T U A T I O N S

 NSTEP =   500000   TIME(PS) =    1000.000  TEMP(K) =    99.59  PRESS =     0.0
 Etot   =         2.3182  EKtot   =         1.7811  EPtot      =         1.4760
 BOND   =         0.7922  ANGLE   =         1.2023  DIHED      =         0.0874
 1-4 NB =         0.2164  1-4 EEL =         0.0519  VDWAALS    =         0.0000
 EELEC  =         0.0009  EHBOND  =         0.0000  RESTRAINT  =         0.0000
 DV/DL  =         0.1642
 ------------------------------------------------------------------------------

      A V E R A G E S   O V E R  500000 S T E P S

 NSTEP =   500000   TIME(PS) =    1000.000  TEMP(K) =   301.24  PRESS =     0.0
 Etot   =        18.0139  EKtot   =         5.3876  EPtot      =        12.6263
 BOND   =         0.9782  ANGLE   =         5.1466  DIHED      =         5.2777
 1-4 NB =         0.3850  1-4 EEL =         3.3068  VDWAALS    =        -0.0001
 EELEC  =        -2.4678  EHBOND  =         0.0000  RESTRAINT  =         0.0000
 DV/DL  =        -2.6544
 ------------------------------------------------------------------------------

      R M S  F L U C T U A T I O N S

 NSTEP =   500000   TIME(PS) =    1000.000  TEMP(K) =    99.59  PRESS =     0.0
 Etot   =         2.3182  EKtot   =         1.7811  EPtot      =         1.4760
 BOND   =         0.7922  ANGLE   =         1.2023  DIHED      =         0.0874
 1-4 NB =         0.2164  1-4 EEL =         0.0519  VDWAALS    =         0.0000
 EELEC  =         0.0009  EHBOND  =         0.0000  RESTRAINT  =         0.0000
 DV/DL  =         0.1642
 ------------------------------------------------------------------------------

      DV/DL, AVERAGES OVER  500000 STEPS

 NSTEP =   500000   TIME(PS) =    1000.000  TEMP(K) =    99.59  PRESS =     0.0
 Etot   =         0.0000  EKtot   =         0.0000  EPtot      =        -2.6544
 BOND   =         0.0000  ANGLE   =         0.0000  DIHED      =         0.0000
 1-4 NB =         0.0000  1-4 EEL =       -10.4620  VDWAALS    =         0.0000
 EELEC  =         7.8076  EHBOND  =         0.0000  RESTRAINT  =         0.0000
 DV/DL  =        -2.6544
 ------------------------------------------------------------------------------
