-------------------------------------------------------
          Amber 20 PMEMD                              2020
          -------------------------------------------------------

  [-O]verwriting output

File Assignments:

 Here is the input file:

 &cntrl
   nstlim=500000, nscm=1000,
   ntx=5, irest=1, ntpr=1000,
   tempi=300.0, temp0=300.0, ntt=3, gamma_ln=2.0,
   ntp=1, pres0=1.01325, taup=5.0,
   ntb=2, igb=0, cut=10.0,
   dt=0.002, ig=-1,
   ntc=2, ntf=2,
   iwrap=0,
   ntwr=1000, ntwx=50000, ntave=1000,
   ioutfm=1, ntwv=-1,
   ifsc = 0, icfe=1,
   clambda=0.99078,
   timask1=':1',
   timask2=':2', crgmask = ':2',
/

Note: ig = -1. Setting random seed to   295515 based on wallclock time in
      microseconds.

--------------------------------------------------------------------------------
   1.  RESOURCE   USE:
--------------------------------------------------------------------------------

 getting box info from netcdf restart file
 NATOM  =   20855 NTYPES =       6 NBONH =   20847 MBONA  =       6
 NTHETH =      12 MTHETA =       6 NPHIH =      24 MPHIA  =       2
 NHPARM =       0 NPARM  =       0 NNB   =   27832 NRES   =    6949
 NBONA  =       6 NTHETA =       6 NPHIA =       2 NUMBND =       5
 NUMANG =       4 NPTRA  =       3 NATYP =       6 NPHB   =       1
 IFBOX  =       2 NMXRS  =       7 IFCAP =       0 NEXTRA =       0
 NCOPY  =       0

     BOX TYPE: TRUNCATED OCTAHEDRON

--------------------------------------------------------------------------------
   2.  CONTROL  DATA  FOR  THE  RUN
--------------------------------------------------------------------------------

default_name

General flags:
     imin    =       0, nmropt  =       0

Nature and format of input:
     ntx     =       5, irest   =       1, ntrx    =       1

Nature and format of output:
     ntxo    =       2, ntpr    =    1000, ntrx    =       1, ntwr    =    1000
     iwrap   =       0, ntwx    =   50000, ntwv    =      -1, ntwe    =       0
     ioutfm  =       1, ntwprt  =       0, idecomp =       0, rbornstat=      0

Potential function:
     ntf     =       2, ntb     =       2, igb     =       0, nsnb    =      25
     ipol    =       0, gbsa    =       0, iesp    =       0
     dielc   =   1.00000, cut     =  10.00000, intdiel =   1.00000

Frozen or restrained atoms:
     ibelly  =       0, ntr     =       0

Molecular dynamics:
     nstlim  =    500000, nscm    =      1000, nrespa  =         1
     t       =   0.00000, dt      =   0.00200, vlimit  =  -1.00000

Langevin dynamics temperature regulation:
     ig      =  295515
     temp0   = 300.00000, tempi   = 300.00000, gamma_ln=   2.00000

Pressure regulation:
     ntp     =       1
     pres0   =   1.01325, comp    =  44.60000, taup    =   5.00000

SHAKE:
     ntc     =       2, jfastw  =       0
     tol     =   0.00001

Free energy options:
     icfe    =       1, ifsc    =       0, klambda =       1
     clambda =  0.9908, scalpha =  0.5000, scbeta  = 12.0000
     sceeorder =       2
     dynlmb =  0.0000 logdvdl =       0

Ewald parameters:
     verbose =       0, ew_type =       0, nbflag  =       1, use_pme =       1
     vdwmeth =       1, eedmeth =       1, netfrc  =       1
     Box X =   66.953   Box Y =   66.953   Box Z =   66.953
     Alpha =  109.471   Beta  =  109.471   Gamma =  109.471
     NFFT1 =   64       NFFT2 =   64       NFFT3 =   64
     Cutoff=   10.000   Tol   =0.100E-04
     Ewald Coefficient =  0.27511
     Interpolation order =    4
     TI Mask 1 :1; matches      7 atoms
     TI Mask 2 :2; matches      7 atoms
     TI region 1:   20848 atoms
     TI region 2:   20848 atoms
Removing charge of      -0.8188 from atom       8
Removing charge of      -0.8188 from atom       9
Removing charge of       0.8054 from atom      10
Removing charge of      -0.1021 from atom      11
Removing charge of      -0.0219 from atom      12
Removing charge of      -0.0219 from atom      13
Removing charge of      -0.0219 from atom      14
Total charge of  -0.99999900 removed from       7 atoms
     Checking for mismatched coordinates.

--------------------------------------------------------------------------------
   3.  ATOMIC COORDINATES AND VELOCITIES
--------------------------------------------------------------------------------

default_name
 begin time read from input coords =   200.000 ps

 Number of triangulated 3-point waters found:     6947

     Sum of charges for TI region  1 =  -0.99999900
     Skip neutralizing charges...

     Sum of charges for TI region  2 =   0.00000000
     Skip neutralizing charges...

--------------------------------------------------------------------------------
   4.  RESULTS
 NSTEP =     1000   TIME(PS) =     202.000  TEMP(K) =   299.94  PRESS =  -710.1
 Etot   =    -53046.8120  EKtot   =     12427.5734  EPtot      =    -65474.3854
 BOND   =         1.3434  ANGLE   =         4.6304  DIHED      =         5.3023
 1-4 NB =         0.6470  1-4 EEL =         0.0973  VDWAALS    =      9651.9929
 EELEC  =    -75138.3986  EHBOND  =         0.0000  RESTRAINT  =         0.0000
 EKCMT  =      6253.7292  VIRIAL  =      9746.9620  VOLUME     =    227832.8235
                                                    Density    =         0.9126
 DV/DL  =        24.6631
 ------------------------------------------------------------------------------

      A V E R A G E S   O V E R    1000 S T E P S

 NSTEP =     1000   TIME(PS) =     202.000  TEMP(K) =   299.05  PRESS =  -782.6
 Etot   =    -52925.1240  EKtot   =     12390.3785  EPtot      =    -65315.5025
 BOND   =         1.0084  ANGLE   =         4.7590  DIHED      =         5.2640
 1-4 NB =         0.4828  1-4 EEL =         0.0970  VDWAALS    =      9578.5427
 EELEC  =    -74905.6566  EHBOND  =         0.0000  RESTRAINT  =         0.0000
 EKCMT  =      6204.1774  VIRIAL  =     10080.8037  VOLUME     =    229346.6136
                                                    Density    =         0.9066
 DV/DL  =         6.7944
 ------------------------------------------------------------------------------

      R M S  F L U C T U A T I O N S

 NSTEP =     1000   TIME(PS) =     202.000  TEMP(K) =     1.95  PRESS =   140.0
 Etot   =       115.1353  EKtot   =        80.7109  EPtot      =       114.7197
 BOND   =         0.6824  ANGLE   =         0.8253  DIHED      =         0.0616
 1-4 NB =         0.2729  1-4 EEL =         0.0014  VDWAALS    =       129.1159
 EELEC  =       205.9071  EHBOND  =         0.0000  RESTRAINT  =         0.0000
 EKCMT  =        64.1028  VIRIAL  =       675.9121  VOLUME     =       956.7460
                                                    Density    =         0.0038
 DV/DL  =         9.8897
 ------------------------------------------------------------------------------

      A V E R A G E S   O V E R    1000 S T E P S

 NSTEP =     1000   TIME(PS) =     202.000  TEMP(K) =   299.05  PRESS =  -782.6
 Etot   =    -52925.1240  EKtot   =     12390.3785  EPtot      =    -65315.5025
 BOND   =         1.0084  ANGLE   =         4.7590  DIHED      =         5.2640
 1-4 NB =         0.4828  1-4 EEL =         0.0970  VDWAALS    =      9578.5427
 EELEC  =    -74905.6566  EHBOND  =         0.0000  RESTRAINT  =         0.0000
 EKCMT  =      6204.1774  VIRIAL  =     10080.8037  VOLUME     =    229346.6136
                                                    Density    =         0.9066
 DV/DL  =         6.7944
 ------------------------------------------------------------------------------

      R M S  F L U C T U A T I O N S

 NSTEP =     1000   TIME(PS) =     202.000  TEMP(K) =     1.95  PRESS =   140.0
 Etot   =       115.1353  EKtot   =        80.7109  EPtot      =       114.7197
 BOND   =         0.6824  ANGLE   =         0.8253  DIHED      =         0.0616
 1-4 NB =         0.2729  1-4 EEL =         0.0014  VDWAALS    =       129.1159
 EELEC  =       205.9071  EHBOND  =         0.0000  RESTRAINT  =         0.0000
 EKCMT  =        64.1028  VIRIAL  =       675.9121  VOLUME     =       956.7460
                                                    Density    =         0.0038
 DV/DL  =         9.8897
 ------------------------------------------------------------------------------

      DV/DL, AVERAGES OVER    1000 STEPS

 NSTEP =     1000   TIME(PS) =     202.000  TEMP(K) =     1.95  PRESS =     0.0
 Etot   =         0.0000  EKtot   =         0.0000  EPtot      =         6.7944
 BOND   =         0.0000  ANGLE   =         0.0000  DIHED      =         0.0000
 1-4 NB =         0.0000  1-4 EEL =       -10.5252  VDWAALS    =         0.0000
 EELEC  =        17.3196  EHBOND  =         0.0000  RESTRAINT  =         0.0000
 EKCMT  =         0.0000  VIRIAL  =         0.0000  VOLUME     =         0.0000
                                                    Density    =         0.0000
 DV/DL  =         6.7944
 ------------------------------------------------------------------------------

      A V E R A G E S   O V E R    1000 S T E P S

 NSTEP =     2000   TIME(PS) =     204.000  TEMP(K) =   298.97  PRESS =  -683.9
 Etot   =    -53109.3725  EKtot   =     12387.3284  EPtot      =    -65496.7009
 BOND   =         1.3439  ANGLE   =         5.3440  DIHED      =         5.2842
 1-4 NB =         0.5155  1-4 EEL =         0.0971  VDWAALS    =      9629.8129
 EELEC  =    -75139.0985  EHBOND  =         0.0000  RESTRAINT  =         0.0000
 EKCMT  =      6203.5163  VIRIAL  =      9547.3366  VOLUME     =    226426.1567
                                                    Density    =         0.9183
 DV/DL  =         6.0610
 ------------------------------------------------------------------------------

      R M S  F L U C T U A T I O N S

 NSTEP =     2000   TIME(PS) =     204.000  TEMP(K) =     1.58  PRESS =   121.9
 Etot   =        73.9874  EKtot   =        65.4679  EPtot      =        80.1163
 BOND   =         0.8702  ANGLE   =         1.1956  DIHED      =         0.0808
 1-4 NB =         0.3321  1-4 EEL =         0.0020  VDWAALS    =       124.5245
 EELEC  =       165.5020  EHBOND  =         0.0000  RESTRAINT  =         0.0000
 EKCMT  =        47.9813  VIRIAL  =       602.5631  VOLUME     =       782.2819
                                                    Density    =         0.0032
 DV/DL  =         8.4580
 ------------------------------------------------------------------------------

      A V E R A G E S   O V E R    1000 S T E P S

 NSTEP =     2000   TIME(PS) =     204.000  TEMP(K) =   298.97  PRESS =  -683.9
 Etot   =    -53109.3725  EKtot   =     12387.3284  EPtot      =    -65496.7009
 BOND   =         1.3439  ANGLE   =         5.3440  DIHED      =         5.2842
 1-4 NB =         0.5155  1-4 EEL =         0.0971  VDWAALS    =      9629.8129
 EELEC  =    -75139.0985  EHBOND  =         0.0000  RESTRAINT  =         0.0000
 EKCMT  =      6203.5163  VIRIAL  =      9547.3366  VOLUME     =    226426.1567
                                                    Density    =         0.9183
 DV/DL  =         6.0610
 ------------------------------------------------------------------------------

      R M S  F L U C T U A T I O N S

 NSTEP =     2000   TIME(PS) =     204.000  TEMP(K) =     1.58  PRESS =   121.9
 Etot   =        73.9874  EKtot   =        65.4679  EPtot      =        80.1163
 BOND   =         0.8702  ANGLE   =         1.1956  DIHED      =         0.0808
 1-4 NB =         0.3321  1-4 EEL =         0.0020  VDWAALS    =       124.5245
 EELEC  =       165.5020  EHBOND  =         0.0000  RESTRAINT  =         0.0000
 EKCMT  =        47.9813  VIRIAL  =       602.5631  VOLUME     =       782.2819
                                                    Density    =         0.0032
 DV/DL  =         8.4580
 ------------------------------------------------------------------------------

      DV/DL, AVERAGES OVER    1000 STEPS

 NSTEP =     2000   TIME(PS) =     204.000  TEMP(K) =     1.58  PRESS =     0.0
 Etot   =         0.0000  EKtot   =         0.0000  EPtot      =         6.0610
 BOND   =         0.0000  ANGLE   =         0.0000  DIHED      =         0.0000
 1-4 NB =         0.0000  1-4 EEL =       -10.5315  VDWAALS    =         0.0000
 EELEC  =        16.5925  EHBOND  =         0.0000  RESTRAINT  =         0.0000
 EKCMT  =         0.0000  VIRIAL  =         0.0000  VOLUME     =         0.0000
                                                    Density    =         0.0000
 DV/DL  =         6.0610
 ------------------------------------------------------------------------------

      A V E R A G E S   O V E R    1000 S T E P S

 NSTEP =   500000   TIME(PS) =    1200.000  TEMP(K) =   299.55  PRESS =    50.2
 Etot   =    -53966.3234  EKtot   =     12411.3616  EPtot      =    -66377.6849
 BOND   =         0.8000  ANGLE   =         5.4081  DIHED      =         5.2666
 1-4 NB =         0.5385  1-4 EEL =         0.0971  VDWAALS    =     10005.4705
 EELEC  =    -76395.2657  EHBOND  =         0.0000  RESTRAINT  =         0.0000
 EKCMT  =      6239.1460  VIRIAL  =      6009.6859  VOLUME     =    211595.1239
                                                    Density    =         0.9827
 DV/DL  =        10.7523
 ------------------------------------------------------------------------------

      R M S  F L U C T U A T I O N S

 NSTEP =   500000   TIME(PS) =    1200.000  TEMP(K) =     1.64  PRESS =   129.4
 Etot   =        57.6166  EKtot   =        67.8123  EPtot      =        75.7314
 BOND   =         0.6296  ANGLE   =         1.1904  DIHED      =         0.0707
 1-4 NB =         0.3295  1-4 EEL =         0.0016  VDWAALS    =       126.4738
 EELEC  =       166.1799  EHBOND  =         0.0000  RESTRAINT  =         0.0000
 EKCMT  =        53.3881  VIRIAL  =       601.1338  VOLUME     =        76.0191
                                                    Density    =         0.0004
 DV/DL  =         9.2872
 ------------------------------------------------------------------------------

      A V E R A G E S   O V E R    1000 S T E P S

 NSTEP =   500000   TIME(PS) =    1200.000  TEMP(K) =   299.55  PRESS =    50.2
 Etot   =    -53966.3234  EKtot   =     12411.3616  EPtot      =    -66377.6849
 BOND   =         0.8000  ANGLE   =         5.4081  DIHED      =         5.2666
 1-4 NB =         0.5385  1-4 EEL =         0.0971  VDWAALS    =     10005.4705
 EELEC  =    -76395.2657  EHBOND  =         0.0000  RESTRAINT  =         0.0000
 EKCMT  =      6239.1460  VIRIAL  =      6009.6859  VOLUME     =    211595.1239
                                                    Density    =         0.9827
 DV/DL  =        10.7523
 ------------------------------------------------------------------------------

      R M S  F L U C T U A T I O N S

 NSTEP =   500000   TIME(PS) =    1200.000  TEMP(K) =     1.64  PRESS =   129.4
 Etot   =        57.6166  EKtot   =        67.8123  EPtot      =        75.7314
 BOND   =         0.6296  ANGLE   =         1.1904  DIHED      =         0.0707
 1-4 NB =         0.3295  1-4 EEL =         0.0016  VDWAALS    =       126.4738
 EELEC  =       166.1799  EHBOND  =         0.0000  RESTRAINT  =         0.0000
 EKCMT  =        53.3881  VIRIAL  =       601.1338  VOLUME     =        76.0191
                                                    Density    =         0.0004
 DV/DL  =         9.2872
 ------------------------------------------------------------------------------

      DV/DL, AVERAGES OVER    1000 STEPS

 NSTEP =   500000   TIME(PS) =    1200.000  TEMP(K) =     1.64  PRESS =     0.0
 Etot   =         0.0000  EKtot   =         0.0000  EPtot      =        10.7523
 BOND   =         0.0000  ANGLE   =         0.0000  DIHED      =         0.0000
 1-4 NB =         0.0000  1-4 EEL =       -10.5368  VDWAALS    =         0.0000
 EELEC  =        21.2890  EHBOND  =         0.0000  RESTRAINT  =         0.0000
 EKCMT  =         0.0000  VIRIAL  =         0.0000  VOLUME     =         0.0000
                                                    Density    =         0.0000
 DV/DL  =        10.7523
 ------------------------------------------------------------------------------

      A V E R A G E S   O V E R  500000 S T E P S

 NSTEP =   500000   TIME(PS) =    1200.000  TEMP(K) =   300.27  PRESS =    -8.8
 Etot   =    -53782.1461  EKtot   =     12441.1096  EPtot      =    -66223.2557
 BOND   =         0.9666  ANGLE   =         5.1787  DIHED      =         5.2834
 1-4 NB =         0.5079  1-4 EEL =         0.0971  VDWAALS    =      9901.4236
 EELEC  =    -76136.7131  EHBOND  =         0.0000  RESTRAINT  =         0.0000
 EKCMT  =      6241.2607  VIRIAL  =      6283.4032  VOLUME     =    211852.6070
                                                    Density    =         0.9815
 DV/DL  =         8.1562
 ------------------------------------------------------------------------------

      R M S  F L U C T U A T I O N S

 NSTEP =   500000   TIME(PS) =    1200.000  TEMP(K) =     2.07  PRESS =   146.3
 Etot   =       167.8270  EKtot   =        85.9356  EPtot      =       143.5367
 BOND   =         0.7867  ANGLE   =         1.2148  DIHED      =         0.0916
 1-4 NB =         0.3052  1-4 EEL =         0.0016  VDWAALS    =       128.1410
 EELEC  =       221.8784  EHBOND  =         0.0000  RESTRAINT  =         0.0000
 EKCMT  =        61.0918  VIRIAL  =       674.7501  VOLUME     =      1403.1734
                                                    Density    =         0.0061
 DV/DL  =         8.6166
 ------------------------------------------------------------------------------

      A V E R A G E S   O V E R  500000 S T E P S

 NSTEP =   500000   TIME(PS) =    1200.000  TEMP(K) =   300.27  PRESS =    -8.8
 Etot   =    -53782.1461  EKtot   =     12441.1096  EPtot      =    -66223.2557
 BOND   =         0.9666  ANGLE   =         5.1787  DIHED      =         5.2834
 1-4 NB =         0.5079  1-4 EEL =         0.0971  VDWAALS    =      9901.4236
 EELEC  =    -76136.7131  EHBOND  =         0.0000  RESTRAINT  =         0.0000
 EKCMT  =      6241.2607  VIRIAL  =      6283.4032  VOLUME     =    211852.6070
                                                    Density    =         0.9815
 DV/DL  =         8.1562
 ------------------------------------------------------------------------------

      R M S  F L U C T U A T I O N S

 NSTEP =   500000   TIME(PS) =    1200.000  TEMP(K) =     2.07  PRESS =   146.3
 Etot   =       167.8270  EKtot   =        85.9356  EPtot      =       143.5367
 BOND   =         0.7867  ANGLE   =         1.2148  DIHED      =         0.0916
 1-4 NB =         0.3052  1-4 EEL =         0.0016  VDWAALS    =       128.1410
 EELEC  =       221.8784  EHBOND  =         0.0000  RESTRAINT  =         0.0000
 EKCMT  =        61.0918  VIRIAL  =       674.7501  VOLUME     =      1403.1734
                                                    Density    =         0.0061
 DV/DL  =         8.6166
 ------------------------------------------------------------------------------

      DV/DL, AVERAGES OVER  500000 STEPS

 NSTEP =   500000   TIME(PS) =    1200.000  TEMP(K) =     2.07  PRESS =     0.0
 Etot   =         0.0000  EKtot   =         0.0000  EPtot      =         8.1562
 BOND   =         0.0000  ANGLE   =         0.0000  DIHED      =         0.0000
 1-4 NB =         0.0000  1-4 EEL =       -10.5350  VDWAALS    =         0.0000
 EELEC  =        18.6913  EHBOND  =         0.0000  RESTRAINT  =         0.0000
 EKCMT  =         0.0000  VIRIAL  =         0.0000  VOLUME     =         0.0000
                                                    Density    =         0.0000
 DV/DL  =         8.1562
 ------------------------------------------------------------------------------
