-------------------------------------------------------
          Amber 20 PMEMD                              2020
          -------------------------------------------------------

  [-O]verwriting output

File Assignments:

 Here is the input file:

 &cntrl
   nstlim=500000, nscm=1000,
   ntx=5, irest=1, ntpr=1000,
   tempi=300.0, temp0=300.0, ntt=3, gamma_ln=2.0,
   ntp=1, pres0=1.01325, taup=5.0,
   ntb=2, igb=0, cut=10.0,
   dt=0.002, ig=-1,
   ntc=2, ntf=2,
   iwrap=0,
   ntwr=1000, ntwx=50000, ntave=1000,
   ioutfm=1, ntwv=-1,
   ifsc = 0, icfe=1,
   clambda=0.00922,
   timask1=':1',
   timask2=':2', crgmask = ':2',
/

Note: ig = -1. Setting random seed to   968183 based on wallclock time in
      microseconds.

--------------------------------------------------------------------------------
   1.  RESOURCE   USE:
--------------------------------------------------------------------------------

 getting box info from netcdf restart file
 NATOM  =   20855 NTYPES =       6 NBONH =   20847 MBONA  =       6
 NTHETH =      12 MTHETA =       6 NPHIH =      24 MPHIA  =       2
 NHPARM =       0 NPARM  =       0 NNB   =   27832 NRES   =    6949
 NBONA  =       6 NTHETA =       6 NPHIA =       2 NUMBND =       5
 NUMANG =       4 NPTRA  =       3 NATYP =       6 NPHB   =       1
 IFBOX  =       2 NMXRS  =       7 IFCAP =       0 NEXTRA =       0
 NCOPY  =       0

     BOX TYPE: TRUNCATED OCTAHEDRON

--------------------------------------------------------------------------------
   2.  CONTROL  DATA  FOR  THE  RUN
--------------------------------------------------------------------------------

default_name

General flags:
     imin    =       0, nmropt  =       0

Nature and format of input:
     ntx     =       5, irest   =       1, ntrx    =       1

Nature and format of output:
     ntxo    =       2, ntpr    =    1000, ntrx    =       1, ntwr    =    1000
     iwrap   =       0, ntwx    =   50000, ntwv    =      -1, ntwe    =       0
     ioutfm  =       1, ntwprt  =       0, idecomp =       0, rbornstat=      0

Potential function:
     ntf     =       2, ntb     =       2, igb     =       0, nsnb    =      25
     ipol    =       0, gbsa    =       0, iesp    =       0
     dielc   =   1.00000, cut     =  10.00000, intdiel =   1.00000

Frozen or restrained atoms:
     ibelly  =       0, ntr     =       0

Molecular dynamics:
     nstlim  =    500000, nscm    =      1000, nrespa  =         1
     t       =   0.00000, dt      =   0.00200, vlimit  =  -1.00000

Langevin dynamics temperature regulation:
     ig      =  968183
     temp0   = 300.00000, tempi   = 300.00000, gamma_ln=   2.00000

Pressure regulation:
     ntp     =       1
     pres0   =   1.01325, comp    =  44.60000, taup    =   5.00000

SHAKE:
     ntc     =       2, jfastw  =       0
     tol     =   0.00001

Free energy options:
     icfe    =       1, ifsc    =       0, klambda =       1
     clambda =  0.0092, scalpha =  0.5000, scbeta  = 12.0000
     sceeorder =       2
     dynlmb =  0.0000 logdvdl =       0

Ewald parameters:
     verbose =       0, ew_type =       0, nbflag  =       1, use_pme =       1
     vdwmeth =       1, eedmeth =       1, netfrc  =       1
     Box X =   66.953   Box Y =   66.953   Box Z =   66.953
     Alpha =  109.471   Beta  =  109.471   Gamma =  109.471
     NFFT1 =   64       NFFT2 =   64       NFFT3 =   64
     Cutoff=   10.000   Tol   =0.100E-04
     Ewald Coefficient =  0.27511
     Interpolation order =    4
     TI Mask 1 :1; matches      7 atoms
     TI Mask 2 :2; matches      7 atoms
     TI region 1:   20848 atoms
     TI region 2:   20848 atoms
Removing charge of      -0.8188 from atom       8
Removing charge of      -0.8188 from atom       9
Removing charge of       0.8054 from atom      10
Removing charge of      -0.1021 from atom      11
Removing charge of      -0.0219 from atom      12
Removing charge of      -0.0219 from atom      13
Removing charge of      -0.0219 from atom      14
Total charge of  -0.99999900 removed from       7 atoms
     Checking for mismatched coordinates.

--------------------------------------------------------------------------------
   3.  ATOMIC COORDINATES AND VELOCITIES
--------------------------------------------------------------------------------

default_name
 begin time read from input coords =   200.000 ps

 Number of triangulated 3-point waters found:     6947

     Sum of charges for TI region  1 =  -0.99999900
     Skip neutralizing charges...

     Sum of charges for TI region  2 =   0.00000000
     Skip neutralizing charges...

--------------------------------------------------------------------------------
   4.  RESULTS
 NSTEP =     1000   TIME(PS) =     202.000  TEMP(K) =   297.45  PRESS =  -314.4
 Etot   =    -52909.1396  EKtot   =     12324.0748  EPtot      =    -65233.2144
 BOND   =         0.4235  ANGLE   =         6.1415  DIHED      =         5.2918
 1-4 NB =         0.0988  1-4 EEL =        10.0913  VDWAALS    =      9893.3986
 EELEC  =    -75148.6598  EHBOND  =         0.0000  RESTRAINT  =         0.0000
 EKCMT  =      6141.7519  VIRIAL  =      7693.4889  VOLUME     =    228584.4723
                                                    Density    =         0.9096
 DV/DL  =       175.6333
 ------------------------------------------------------------------------------

      A V E R A G E S   O V E R    1000 S T E P S

 NSTEP =     1000   TIME(PS) =     202.000  TEMP(K) =   302.83  PRESS =  -597.6
 Etot   =    -52635.7468  EKtot   =     12547.0082  EPtot      =    -65182.7550
 BOND   =         0.6656  ANGLE   =         5.5936  DIHED      =         5.3039
 1-4 NB =         0.3390  1-4 EEL =        10.3329  VDWAALS    =      9596.0351
 EELEC  =    -74801.0252  EHBOND  =         0.0000  RESTRAINT  =         0.0000
 EKCMT  =      6280.8385  VIRIAL  =      9245.8159  VOLUME     =    229709.2885
                                                    Density    =         0.9052
 DV/DL  =       169.4588
 ------------------------------------------------------------------------------

      R M S  F L U C T U A T I O N S

 NSTEP =     1000   TIME(PS) =     202.000  TEMP(K) =     2.11  PRESS =   136.2
 Etot   =       116.8666  EKtot   =        87.4909  EPtot      =        94.4258
 BOND   =         0.5086  ANGLE   =         1.2020  DIHED      =         0.1214
 1-4 NB =         0.1904  1-4 EEL =         0.1429  VDWAALS    =       109.7629
 EELEC  =       146.8916  EHBOND  =         0.0000  RESTRAINT  =         0.0000
 EKCMT  =        61.7786  VIRIAL  =       683.4537  VOLUME     =       705.6137
                                                    Density    =         0.0028
 DV/DL  =         8.8560
 ------------------------------------------------------------------------------

      A V E R A G E S   O V E R    1000 S T E P S

 NSTEP =     1000   TIME(PS) =     202.000  TEMP(K) =   302.83  PRESS =  -597.6
 Etot   =    -52635.7468  EKtot   =     12547.0082  EPtot      =    -65182.7550
 BOND   =         0.6656  ANGLE   =         5.5936  DIHED      =         5.3039
 1-4 NB =         0.3390  1-4 EEL =        10.3329  VDWAALS    =      9596.0351
 EELEC  =    -74801.0252  EHBOND  =         0.0000  RESTRAINT  =         0.0000
 EKCMT  =      6280.8385  VIRIAL  =      9245.8159  VOLUME     =    229709.2885
                                                    Density    =         0.9052
 DV/DL  =       169.4588
 ------------------------------------------------------------------------------

      R M S  F L U C T U A T I O N S

 NSTEP =     1000   TIME(PS) =     202.000  TEMP(K) =     2.11  PRESS =   136.2
 Etot   =       116.8666  EKtot   =        87.4909  EPtot      =        94.4258
 BOND   =         0.5086  ANGLE   =         1.2020  DIHED      =         0.1214
 1-4 NB =         0.1904  1-4 EEL =         0.1429  VDWAALS    =       109.7629
 EELEC  =       146.8916  EHBOND  =         0.0000  RESTRAINT  =         0.0000
 EKCMT  =        61.7786  VIRIAL  =       683.4537  VOLUME     =       705.6137
                                                    Density    =         0.0028
 DV/DL  =         8.8560
 ------------------------------------------------------------------------------

      DV/DL, AVERAGES OVER    1000 STEPS

 NSTEP =     1000   TIME(PS) =     202.000  TEMP(K) =     2.11  PRESS =     0.0
 Etot   =         0.0000  EKtot   =         0.0000  EPtot      =       169.4588
 BOND   =         0.0000  ANGLE   =         0.0000  DIHED      =         0.0000
 1-4 NB =         0.0000  1-4 EEL =       -10.4291  VDWAALS    =         0.0000
 EELEC  =       179.8879  EHBOND  =         0.0000  RESTRAINT  =         0.0000
 EKCMT  =         0.0000  VIRIAL  =         0.0000  VOLUME     =         0.0000
                                                    Density    =         0.0000
 DV/DL  =       169.4588
 ------------------------------------------------------------------------------

      A V E R A G E S   O V E R    1000 S T E P S

 NSTEP =     2000   TIME(PS) =     204.000  TEMP(K) =   299.69  PRESS =  -553.2
 Etot   =    -53140.7059  EKtot   =     12417.0497  EPtot      =    -65557.7556
 BOND   =         1.2308  ANGLE   =         5.6706  DIHED      =         5.2721
 1-4 NB =         0.3276  1-4 EEL =        10.3149  VDWAALS    =      9715.7437
 EELEC  =    -75296.3153  EHBOND  =         0.0000  RESTRAINT  =         0.0000
 EKCMT  =      6220.5096  VIRIAL  =      8937.3992  VOLUME     =    227506.8171
                                                    Density    =         0.9140
 DV/DL  =       174.4813
 ------------------------------------------------------------------------------

      R M S  F L U C T U A T I O N S

 NSTEP =     2000   TIME(PS) =     204.000  TEMP(K) =     2.04  PRESS =   104.6
 Etot   =       117.9548  EKtot   =        84.3204  EPtot      =        94.7990
 BOND   =         0.8142  ANGLE   =         1.4195  DIHED      =         0.0717
 1-4 NB =         0.2128  1-4 EEL =         0.1677  VDWAALS    =        91.4331
 EELEC  =       123.5947  EHBOND  =         0.0000  RESTRAINT  =         0.0000
 EKCMT  =        58.1169  VIRIAL  =       510.3759  VOLUME     =       663.0959
                                                    Density    =         0.0027
 DV/DL  =         9.0055
 ------------------------------------------------------------------------------

      A V E R A G E S   O V E R    1000 S T E P S

 NSTEP =     2000   TIME(PS) =     204.000  TEMP(K) =   299.69  PRESS =  -553.2
 Etot   =    -53140.7059  EKtot   =     12417.0497  EPtot      =    -65557.7556
 BOND   =         1.2308  ANGLE   =         5.6706  DIHED      =         5.2721
 1-4 NB =         0.3276  1-4 EEL =        10.3149  VDWAALS    =      9715.7437
 EELEC  =    -75296.3153  EHBOND  =         0.0000  RESTRAINT  =         0.0000
 EKCMT  =      6220.5096  VIRIAL  =      8937.3992  VOLUME     =    227506.8171
                                                    Density    =         0.9140
 DV/DL  =       174.4813
 ------------------------------------------------------------------------------

      R M S  F L U C T U A T I O N S

 NSTEP =     2000   TIME(PS) =     204.000  TEMP(K) =     2.04  PRESS =   104.6
 Etot   =       117.9548  EKtot   =        84.3204  EPtot      =        94.7990
 BOND   =         0.8142  ANGLE   =         1.4195  DIHED      =         0.0717
 1-4 NB =         0.2128  1-4 EEL =         0.1677  VDWAALS    =        91.4331
 EELEC  =       123.5947  EHBOND  =         0.0000  RESTRAINT  =         0.0000
 EKCMT  =        58.1169  VIRIAL  =       510.3759  VOLUME     =       663.0959
                                                    Density    =         0.0027
 DV/DL  =         9.0055
 ------------------------------------------------------------------------------

      DV/DL, AVERAGES OVER    1000 STEPS

 NSTEP =     2000   TIME(PS) =     204.000  TEMP(K) =     2.04  PRESS =     0.0
 Etot   =         0.0000  EKtot   =         0.0000  EPtot      =       174.4813
 BOND   =         0.0000  ANGLE   =         0.0000  DIHED      =         0.0000
 1-4 NB =         0.0000  1-4 EEL =       -10.4109  VDWAALS    =         0.0000
 EELEC  =       184.8923  EHBOND  =         0.0000  RESTRAINT  =         0.0000
 EKCMT  =         0.0000  VIRIAL  =         0.0000  VOLUME     =         0.0000
                                                    Density    =         0.0000
 DV/DL  =       174.4813
 ------------------------------------------------------------------------------

      A V E R A G E S   O V E R    1000 S T E P S

 NSTEP =   500000   TIME(PS) =    1200.000  TEMP(K) =   299.95  PRESS =   -12.7
 Etot   =    -53904.9473  EKtot   =     12427.9794  EPtot      =    -66332.9268
 BOND   =         0.5806  ANGLE   =         4.8481  DIHED      =         5.2809
 1-4 NB =         0.3220  1-4 EEL =        10.3340  VDWAALS    =      9890.9725
 EELEC  =    -76245.2648  EHBOND  =         0.0000  RESTRAINT  =         0.0000
 EKCMT  =      6222.9959  VIRIAL  =      6281.0122  VOLUME     =    211348.1611
                                                    Density    =         0.9838
 DV/DL  =       170.4131
 ------------------------------------------------------------------------------

      R M S  F L U C T U A T I O N S

 NSTEP =   500000   TIME(PS) =    1200.000  TEMP(K) =     1.98  PRESS =   123.2
 Etot   =        79.8989  EKtot   =        82.0929  EPtot      =        70.1973
 BOND   =         0.5092  ANGLE   =         0.9930  DIHED      =         0.0739
 1-4 NB =         0.1486  1-4 EEL =         0.1267  VDWAALS    =       106.2851
 EELEC  =       118.4457  EHBOND  =         0.0000  RESTRAINT  =         0.0000
 EKCMT  =        60.2799  VIRIAL  =       559.0533  VOLUME     =        33.0837
                                                    Density    =         0.0002
 DV/DL  =         8.6498
 ------------------------------------------------------------------------------

      A V E R A G E S   O V E R    1000 S T E P S

 NSTEP =   500000   TIME(PS) =    1200.000  TEMP(K) =   299.95  PRESS =   -12.7
 Etot   =    -53904.9473  EKtot   =     12427.9794  EPtot      =    -66332.9268
 BOND   =         0.5806  ANGLE   =         4.8481  DIHED      =         5.2809
 1-4 NB =         0.3220  1-4 EEL =        10.3340  VDWAALS    =      9890.9725
 EELEC  =    -76245.2648  EHBOND  =         0.0000  RESTRAINT  =         0.0000
 EKCMT  =      6222.9959  VIRIAL  =      6281.0122  VOLUME     =    211348.1611
                                                    Density    =         0.9838
 DV/DL  =       170.4131
 ------------------------------------------------------------------------------

      R M S  F L U C T U A T I O N S

 NSTEP =   500000   TIME(PS) =    1200.000  TEMP(K) =     1.98  PRESS =   123.2
 Etot   =        79.8989  EKtot   =        82.0929  EPtot      =        70.1973
 BOND   =         0.5092  ANGLE   =         0.9930  DIHED      =         0.0739
 1-4 NB =         0.1486  1-4 EEL =         0.1267  VDWAALS    =       106.2851
 EELEC  =       118.4457  EHBOND  =         0.0000  RESTRAINT  =         0.0000
 EKCMT  =        60.2799  VIRIAL  =       559.0533  VOLUME     =        33.0837
                                                    Density    =         0.0002
 DV/DL  =         8.6498
 ------------------------------------------------------------------------------

      DV/DL, AVERAGES OVER    1000 STEPS

 NSTEP =   500000   TIME(PS) =    1200.000  TEMP(K) =     1.98  PRESS =     0.0
 Etot   =         0.0000  EKtot   =         0.0000  EPtot      =       170.4131
 BOND   =         0.0000  ANGLE   =         0.0000  DIHED      =         0.0000
 1-4 NB =         0.0000  1-4 EEL =       -10.4302  VDWAALS    =         0.0000
 EELEC  =       180.8433  EHBOND  =         0.0000  RESTRAINT  =         0.0000
 EKCMT  =         0.0000  VIRIAL  =         0.0000  VOLUME     =         0.0000
                                                    Density    =         0.0000
 DV/DL  =       170.4131
 ------------------------------------------------------------------------------

      A V E R A G E S   O V E R  500000 S T E P S

 NSTEP =   500000   TIME(PS) =    1200.000  TEMP(K) =   299.94  PRESS =    -9.0
 Etot   =    -53925.2467  EKtot   =     12427.3398  EPtot      =    -66352.5865
 BOND   =         0.9429  ANGLE   =         5.4997  DIHED      =         5.2880
 1-4 NB =         0.3397  1-4 EEL =        10.3294  VDWAALS    =      9917.4510
 EELEC  =    -76292.4372  EHBOND  =         0.0000  RESTRAINT  =         0.0000
 EKCMT  =      6231.2277  VIRIAL  =      6274.3514  VOLUME     =    211636.0105
                                                    Density    =         0.9825
 DV/DL  =       169.8594
 ------------------------------------------------------------------------------

      R M S  F L U C T U A T I O N S

 NSTEP =   500000   TIME(PS) =    1200.000  TEMP(K) =     2.10  PRESS =   141.1
 Etot   =       176.6020  EKtot   =        87.0191  EPtot      =       150.4062
 BOND   =         0.7658  ANGLE   =         1.3671  DIHED      =         0.0990
 1-4 NB =         0.2013  1-4 EEL =         0.1629  VDWAALS    =       125.4775
 EELEC  =       224.7130  EHBOND  =         0.0000  RESTRAINT  =         0.0000
 EKCMT  =        61.4511  VIRIAL  =       650.1438  VOLUME     =      1604.9766
                                                    Density    =         0.0070
 DV/DL  =        10.1681
 ------------------------------------------------------------------------------

      A V E R A G E S   O V E R  500000 S T E P S

 NSTEP =   500000   TIME(PS) =    1200.000  TEMP(K) =   299.94  PRESS =    -9.0
 Etot   =    -53925.2467  EKtot   =     12427.3398  EPtot      =    -66352.5865
 BOND   =         0.9429  ANGLE   =         5.4997  DIHED      =         5.2880
 1-4 NB =         0.3397  1-4 EEL =        10.3294  VDWAALS    =      9917.4510
 EELEC  =    -76292.4372  EHBOND  =         0.0000  RESTRAINT  =         0.0000
 EKCMT  =      6231.2277  VIRIAL  =      6274.3514  VOLUME     =    211636.0105
                                                    Density    =         0.9825
 DV/DL  =       169.8594
 ------------------------------------------------------------------------------

      R M S  F L U C T U A T I O N S

 NSTEP =   500000   TIME(PS) =    1200.000  TEMP(K) =     2.10  PRESS =   141.1
 Etot   =       176.6020  EKtot   =        87.0191  EPtot      =       150.4062
 BOND   =         0.7658  ANGLE   =         1.3671  DIHED      =         0.0990
 1-4 NB =         0.2013  1-4 EEL =         0.1629  VDWAALS    =       125.4775
 EELEC  =       224.7130  EHBOND  =         0.0000  RESTRAINT  =         0.0000
 EKCMT  =        61.4511  VIRIAL  =       650.1438  VOLUME     =      1604.9766
                                                    Density    =         0.0070
 DV/DL  =        10.1681
 ------------------------------------------------------------------------------

      DV/DL, AVERAGES OVER  500000 STEPS

 NSTEP =   500000   TIME(PS) =    1200.000  TEMP(K) =     2.10  PRESS =     0.0
 Etot   =         0.0000  EKtot   =         0.0000  EPtot      =       169.8594
 BOND   =         0.0000  ANGLE   =         0.0000  DIHED      =         0.0000
 1-4 NB =         0.0000  1-4 EEL =       -10.4256  VDWAALS    =         0.0000
 EELEC  =       180.2850  EHBOND  =         0.0000  RESTRAINT  =         0.0000
 EKCMT  =         0.0000  VIRIAL  =         0.0000  VOLUME     =         0.0000
                                                    Density    =         0.0000
 DV/DL  =       169.8594
 ------------------------------------------------------------------------------
