-------------------------------------------------------
          Amber 20 PMEMD                              2020
          -------------------------------------------------------

  [-O]verwriting output

File Assignments:

 Here is the input file:

 &cntrl
   nstlim=1000000, nscm=1000,
   ntx=1, irest=0, ntpr=1000,
   tempi=300.0, temp0=300.0, ntt=3, gamma_ln=2.0,
   ntb=1, igb=0, cut=10.0,
   dt=0.001, ig=-1,
   ntc=1, ntf=1,
   iwrap=0,
   ntwr=1000, ntwx=50000, ntave=1000,
   ioutfm=1, ntwv=-1,
   ifsc = 0, icfe=1,
   clambda=0.04794,
   timask1=':1',
   timask2=':2', crgmask = ':2',
/

Note: ig = -1. Setting random seed to   764775 based on wallclock time in
      microseconds.

--------------------------------------------------------------------------------
   1.  RESOURCE   USE:
--------------------------------------------------------------------------------

 getting box info from netcdf restart file
 NATOM  =      14 NTYPES =       6 NBONH =       6 MBONA  =       6
 NTHETH =      12 MTHETA =       6 NPHIH =      24 MPHIA  =       2
 NHPARM =       0 NPARM  =       0 NNB   =      44 NRES   =       2
 NBONA  =       6 NTHETA =       6 NPHIA =       2 NUMBND =       3
 NUMANG =       4 NPTRA  =       3 NATYP =       6 NPHB   =       1
 IFBOX  =       2 NMXRS  =       7 IFCAP =       0 NEXTRA =       0
 NCOPY  =       0

     BOX TYPE: TRUNCATED OCTAHEDRON

--------------------------------------------------------------------------------
   2.  CONTROL  DATA  FOR  THE  RUN
--------------------------------------------------------------------------------

default_name

General flags:
     imin    =       0, nmropt  =       0

Nature and format of input:
     ntx     =       1, irest   =       0, ntrx    =       1

Nature and format of output:
     ntxo    =       2, ntpr    =    1000, ntrx    =       1, ntwr    =    1000
     iwrap   =       0, ntwx    =   50000, ntwv    =      -1, ntwe    =       0
     ioutfm  =       1, ntwprt  =       0, idecomp =       0, rbornstat=      0

Potential function:
     ntf     =       1, ntb     =       1, igb     =       0, nsnb    =      25
     ipol    =       0, gbsa    =       0, iesp    =       0
     dielc   =   1.00000, cut     =  10.00000, intdiel =   1.00000

Frozen or restrained atoms:
     ibelly  =       0, ntr     =       0

Molecular dynamics:
     nstlim  =   1000000, nscm    =      1000, nrespa  =         1
     t       =   0.00000, dt      =   0.00100, vlimit  =  -1.00000

Langevin dynamics temperature regulation:
     ig      =  764775
     temp0   = 300.00000, tempi   = 300.00000, gamma_ln=   2.00000

Free energy options:
     icfe    =       1, ifsc    =       0, klambda =       1
     clambda =  0.0479, scalpha =  0.5000, scbeta  = 12.0000
     sceeorder =       2
     dynlmb =  0.0000 logdvdl =       0

Ewald parameters:
     verbose =       0, ew_type =       0, nbflag  =       1, use_pme =       1
     vdwmeth =       1, eedmeth =       1, netfrc  =       1
     Box X =   66.953   Box Y =   66.953   Box Z =   66.953
     Alpha =  109.471   Beta  =  109.471   Gamma =  109.471
     NFFT1 =   64       NFFT2 =   64       NFFT3 =   64
     Cutoff=   10.000   Tol   =0.100E-04
     Ewald Coefficient =  0.27511
     Interpolation order =    4
     TI Mask 1 :1; matches      7 atoms
     TI Mask 2 :2; matches      7 atoms
     TI region 1:       7 atoms
     TI region 2:       7 atoms
Removing charge of      -0.8188 from atom       8
Removing charge of      -0.8188 from atom       9
Removing charge of       0.8054 from atom      10
Removing charge of      -0.1021 from atom      11
Removing charge of      -0.0219 from atom      12
Removing charge of      -0.0219 from atom      13
Removing charge of      -0.0219 from atom      14
Total charge of  -0.99999900 removed from       7 atoms
     Checking for mismatched coordinates.

--------------------------------------------------------------------------------
   3.  ATOMIC COORDINATES AND VELOCITIES
--------------------------------------------------------------------------------

default_name
 begin time read from input coords =     0.000 ps

 Number of triangulated 3-point waters found:        0

     Sum of charges for TI region  1 =  -0.99999900
     Skip neutralizing charges...

     Sum of charges for TI region  2 =   0.00000000
     Skip neutralizing charges...

--------------------------------------------------------------------------------
   4.  RESULTS
 NSTEP =        0   TIME(PS) =       0.000  TEMP(K) =   300.51  PRESS =     0.0
 Etot   =        17.1053  EKtot   =         6.2703  EPtot      =        10.8351
 BOND   =         0.0417  ANGLE   =         2.8122  DIHED      =         5.2184
 1-4 NB =         0.2778  1-4 EEL =         9.9182  VDWAALS    =        -0.0001
 EELEC  =        -7.4332  EHBOND  =         0.0000  RESTRAINT  =         0.0000
 DV/DL  =        -2.6101
 ------------------------------------------------------------------------------

      A V E R A G E S   O V E R    1000 S T E P S

 NSTEP =     1000   TIME(PS) =       1.000  TEMP(K) =   222.00  PRESS =     0.0
 Etot   =        18.6467  EKtot   =         4.6322  EPtot      =        14.0145
 BOND   =         1.5027  ANGLE   =         4.4473  DIHED      =         5.2580
 1-4 NB =         0.3144  1-4 EEL =         9.9251  VDWAALS    =        -0.0001
 EELEC  =        -7.4330  EHBOND  =         0.0000  RESTRAINT  =         0.0000
 DV/DL  =        -2.6184
 ------------------------------------------------------------------------------

      R M S  F L U C T U A T I O N S

 NSTEP =     1000   TIME(PS) =       1.000  TEMP(K) =    55.88  PRESS =     0.0
 Etot   =         1.5818  EKtot   =         1.1659  EPtot      =         1.0697
 BOND   =         0.7442  ANGLE   =         0.7690  DIHED      =         0.0557
 1-4 NB =         0.1356  1-4 EEL =         0.1260  VDWAALS    =         0.0000
 EELEC  =         0.0019  EHBOND  =         0.0000  RESTRAINT  =         0.0000
 DV/DL  =         0.1458
 ------------------------------------------------------------------------------

      A V E R A G E S   O V E R    1000 S T E P S

 NSTEP =     1000   TIME(PS) =       1.000  TEMP(K) =   222.13  PRESS =     0.0
 Etot   =        18.6494  EKtot   =         4.6349  EPtot      =        14.0145
 BOND   =         1.5027  ANGLE   =         4.4473  DIHED      =         5.2580
 1-4 NB =         0.3144  1-4 EEL =         9.9251  VDWAALS    =        -0.0001
 EELEC  =        -7.4330  EHBOND  =         0.0000  RESTRAINT  =         0.0000
 DV/DL  =        -2.6184
 ------------------------------------------------------------------------------

      R M S  F L U C T U A T I O N S

 NSTEP =     1000   TIME(PS) =       1.000  TEMP(K) =    55.94  PRESS =     0.0
 Etot   =         1.5811  EKtot   =         1.1672  EPtot      =         1.0697
 BOND   =         0.7442  ANGLE   =         0.7690  DIHED      =         0.0557
 1-4 NB =         0.1356  1-4 EEL =         0.1260  VDWAALS    =         0.0000
 EELEC  =         0.0019  EHBOND  =         0.0000  RESTRAINT  =         0.0000
 DV/DL  =         0.1458
 ------------------------------------------------------------------------------

      DV/DL, AVERAGES OVER    1000 STEPS

 NSTEP =     1000   TIME(PS) =       1.000  TEMP(K) =    55.94  PRESS =     0.0
 Etot   =         0.0000  EKtot   =         0.0000  EPtot      =        -2.6184
 BOND   =        -0.0012  ANGLE   =         0.0005  DIHED      =         0.0000
 1-4 NB =        -0.0000  1-4 EEL =       -10.4249  VDWAALS    =         0.0000
 EELEC  =         7.8072  EHBOND  =         0.0000  RESTRAINT  =         0.0000
 DV/DL  =        -2.6184
 ------------------------------------------------------------------------------

      A V E R A G E S   O V E R    1000 S T E P S

 NSTEP =     2000   TIME(PS) =       2.000  TEMP(K) =   247.27  PRESS =     0.0
 Etot   =        19.6351  EKtot   =         5.1595  EPtot      =        14.4756
 BOND   =         1.7329  ANGLE   =         4.6443  DIHED      =         5.2749
 1-4 NB =         0.3302  1-4 EEL =         9.9268  VDWAALS    =        -0.0001
 EELEC  =        -7.4334  EHBOND  =         0.0000  RESTRAINT  =         0.0000
 DV/DL  =        -2.6187
 ------------------------------------------------------------------------------

      R M S  F L U C T U A T I O N S

 NSTEP =     2000   TIME(PS) =       2.000  TEMP(K) =    54.53  PRESS =     0.0
 Etot   =         0.9264  EKtot   =         1.1378  EPtot      =         0.9833
 BOND   =         0.7709  ANGLE   =         0.7355  DIHED      =         0.0591
 1-4 NB =         0.1686  1-4 EEL =         0.1294  VDWAALS    =         0.0000
 EELEC  =         0.0026  EHBOND  =         0.0000  RESTRAINT  =         0.0000
 DV/DL  =         0.1517
 ------------------------------------------------------------------------------

      A V E R A G E S   O V E R    1000 S T E P S

 NSTEP =     2000   TIME(PS) =       2.000  TEMP(K) =   247.32  PRESS =     0.0
 Etot   =        19.6361  EKtot   =         5.1605  EPtot      =        14.4756
 BOND   =         1.7329  ANGLE   =         4.6443  DIHED      =         5.2749
 1-4 NB =         0.3302  1-4 EEL =         9.9268  VDWAALS    =        -0.0001
 EELEC  =        -7.4334  EHBOND  =         0.0000  RESTRAINT  =         0.0000
 DV/DL  =        -2.6187
 ------------------------------------------------------------------------------

      R M S  F L U C T U A T I O N S

 NSTEP =     2000   TIME(PS) =       2.000  TEMP(K) =    54.69  PRESS =     0.0
 Etot   =         0.9324  EKtot   =         1.1411  EPtot      =         0.9833
 BOND   =         0.7709  ANGLE   =         0.7355  DIHED      =         0.0591
 1-4 NB =         0.1686  1-4 EEL =         0.1294  VDWAALS    =         0.0000
 EELEC  =         0.0026  EHBOND  =         0.0000  RESTRAINT  =         0.0000
 DV/DL  =         0.1517
 ------------------------------------------------------------------------------

      DV/DL, AVERAGES OVER    1000 STEPS

 NSTEP =     2000   TIME(PS) =       2.000  TEMP(K) =    54.69  PRESS =     0.0
 Etot   =         0.0000  EKtot   =         0.0000  EPtot      =        -2.6187
 BOND   =        -0.0005  ANGLE   =         0.0007  DIHED      =         0.0000
 1-4 NB =        -0.0001  1-4 EEL =       -10.4266  VDWAALS    =         0.0000
 EELEC  =         7.8077  EHBOND  =         0.0000  RESTRAINT  =         0.0000
 DV/DL  =        -2.6187
 ------------------------------------------------------------------------------

      A V E R A G E S   O V E R    1000 S T E P S

 NSTEP =  1000000   TIME(PS) =    1000.000  TEMP(K) =   336.98  PRESS =     0.0
 Etot   =        23.0003  EKtot   =         7.0312  EPtot      =        15.9692
 BOND   =         2.7940  ANGLE   =         5.0727  DIHED      =         5.2375
 1-4 NB =         0.3725  1-4 EEL =         9.9268  VDWAALS    =        -0.0001
 EELEC  =        -7.4342  EHBOND  =         0.0000  RESTRAINT  =         0.0000
 DV/DL  =        -2.6201
 ------------------------------------------------------------------------------

      R M S  F L U C T U A T I O N S

 NSTEP =  1000000   TIME(PS) =    1000.000  TEMP(K) =    97.48  PRESS =     0.0
 Etot   =         2.1142  EKtot   =         2.0339  EPtot      =         1.5856
 BOND   =         1.2988  ANGLE   =         1.1116  DIHED      =         0.0307
 1-4 NB =         0.2544  1-4 EEL =         0.1920  VDWAALS    =         0.0000
 EELEC  =         0.0022  EHBOND  =         0.0000  RESTRAINT  =         0.0000
 DV/DL  =         0.2150
 ------------------------------------------------------------------------------

      A V E R A G E S   O V E R    1000 S T E P S

 NSTEP =  1000000   TIME(PS) =    1000.000  TEMP(K) =   337.13  PRESS =     0.0
 Etot   =        23.0035  EKtot   =         7.0344  EPtot      =        15.9692
 BOND   =         2.7940  ANGLE   =         5.0727  DIHED      =         5.2375
 1-4 NB =         0.3725  1-4 EEL =         9.9268  VDWAALS    =        -0.0001
 EELEC  =        -7.4342  EHBOND  =         0.0000  RESTRAINT  =         0.0000
 DV/DL  =        -2.6201
 ------------------------------------------------------------------------------

      R M S  F L U C T U A T I O N S

 NSTEP =  1000000   TIME(PS) =    1000.000  TEMP(K) =    97.79  PRESS =     0.0
 Etot   =         2.1182  EKtot   =         2.0404  EPtot      =         1.5856
 BOND   =         1.2988  ANGLE   =         1.1116  DIHED      =         0.0307
 1-4 NB =         0.2544  1-4 EEL =         0.1920  VDWAALS    =         0.0000
 EELEC  =         0.0022  EHBOND  =         0.0000  RESTRAINT  =         0.0000
 DV/DL  =         0.2150
 ------------------------------------------------------------------------------

      DV/DL, AVERAGES OVER    1000 STEPS

 NSTEP =  1000000   TIME(PS) =    1000.000  TEMP(K) =    97.79  PRESS =     0.0
 Etot   =         0.0000  EKtot   =         0.0000  EPtot      =        -2.6201
 BOND   =        -0.0016  ANGLE   =        -0.0004  DIHED      =        -0.0000
 1-4 NB =        -0.0001  1-4 EEL =       -10.4267  VDWAALS    =         0.0000
 EELEC  =         7.8085  EHBOND  =         0.0000  RESTRAINT  =         0.0000
 DV/DL  =        -2.6201
 ------------------------------------------------------------------------------

      A V E R A G E S   O V E R 1000000 S T E P S

 NSTEP =  1000000   TIME(PS) =    1000.000  TEMP(K) =   299.13  PRESS =     0.0
 Etot   =        21.3477  EKtot   =         6.2414  EPtot      =        15.1062
 BOND   =         1.9427  ANGLE   =         5.0423  DIHED      =         5.2765
 1-4 NB =         0.3497  1-4 EEL =         9.9284  VDWAALS    =        -0.0001
 EELEC  =        -7.4333  EHBOND  =         0.0000  RESTRAINT  =         0.0000
 DV/DL  =        -2.6207
 ------------------------------------------------------------------------------

      R M S  F L U C T U A T I O N S

 NSTEP =  1000000   TIME(PS) =    1000.000  TEMP(K) =    92.71  PRESS =     0.0
 Etot   =         2.5264  EKtot   =         1.9343  EPtot      =         1.6147
 BOND   =         1.1189  ANGLE   =         1.1512  DIHED      =         0.0851
 1-4 NB =         0.1998  1-4 EEL =         0.1566  VDWAALS    =         0.0000
 EELEC  =         0.0027  EHBOND  =         0.0000  RESTRAINT  =         0.0000
 DV/DL  =         0.1783
 ------------------------------------------------------------------------------

      A V E R A G E S   O V E R 1000000 S T E P S

 NSTEP =  1000000   TIME(PS) =    1000.000  TEMP(K) =   299.13  PRESS =     0.0
 Etot   =        21.3478  EKtot   =         6.2416  EPtot      =        15.1062
 BOND   =         1.9427  ANGLE   =         5.0423  DIHED      =         5.2765
 1-4 NB =         0.3497  1-4 EEL =         9.9284  VDWAALS    =        -0.0001
 EELEC  =        -7.4333  EHBOND  =         0.0000  RESTRAINT  =         0.0000
 DV/DL  =        -2.6207
 ------------------------------------------------------------------------------

      R M S  F L U C T U A T I O N S

 NSTEP =  1000000   TIME(PS) =    1000.000  TEMP(K) =    92.71  PRESS =     0.0
 Etot   =         2.5264  EKtot   =         1.9345  EPtot      =         1.6147
 BOND   =         1.1189  ANGLE   =         1.1512  DIHED      =         0.0851
 1-4 NB =         0.1998  1-4 EEL =         0.1566  VDWAALS    =         0.0000
 EELEC  =         0.0027  EHBOND  =         0.0000  RESTRAINT  =         0.0000
 DV/DL  =         0.1783
 ------------------------------------------------------------------------------

      DV/DL, AVERAGES OVER 1000000 STEPS

 NSTEP =  1000000   TIME(PS) =    1000.000  TEMP(K) =    92.71  PRESS =     0.0
 Etot   =         0.0000  EKtot   =         0.0000  EPtot      =        -2.6207
 BOND   =         0.0000  ANGLE   =        -0.0000  DIHED      =         0.0000
 1-4 NB =        -0.0000  1-4 EEL =       -10.4283  VDWAALS    =         0.0000
 EELEC  =         7.8076  EHBOND  =         0.0000  RESTRAINT  =         0.0000
 DV/DL  =        -2.6207
 ------------------------------------------------------------------------------
