-------------------------------------------------------
          Amber 20 PMEMD                              2020
          -------------------------------------------------------

  [-O]verwriting output

File Assignments:

 Here is the input file:

 &cntrl
   nstlim=500000, nscm=1000,
   ntx=1, irest=0, ntpr=1000,
   tempi=300.0, temp0=300.0, ntt=3, gamma_ln=2.0,

   ntb=1, igb=0, cut=10.0,
   dt=0.002, ig=-1,
   ntc=2, ntf=2,
   iwrap=0,
   ntwr=1000, ntwx=50000, ntave=1000,
   ioutfm=1, ntwv=-1,
   ifsc = 0, icfe=1,
   clambda=0.11505,
   timask1=':1',
   timask2=':2', crgmask = ':2',
/

Note: ig = -1. Setting random seed to   347832 based on wallclock time in
      microseconds.

--------------------------------------------------------------------------------
   1.  RESOURCE   USE:
--------------------------------------------------------------------------------

 getting box info from netcdf restart file
 NATOM  =      14 NTYPES =       6 NBONH =       6 MBONA  =       6
 NTHETH =      12 MTHETA =       6 NPHIH =      24 MPHIA  =       2
 NHPARM =       0 NPARM  =       0 NNB   =      44 NRES   =       2
 NBONA  =       6 NTHETA =       6 NPHIA =       2 NUMBND =       3
 NUMANG =       4 NPTRA  =       3 NATYP =       6 NPHB   =       1
 IFBOX  =       2 NMXRS  =       7 IFCAP =       0 NEXTRA =       0
 NCOPY  =       0

     BOX TYPE: TRUNCATED OCTAHEDRON

--------------------------------------------------------------------------------
   2.  CONTROL  DATA  FOR  THE  RUN
--------------------------------------------------------------------------------

default_name

General flags:
     imin    =       0, nmropt  =       0

Nature and format of input:
     ntx     =       1, irest   =       0, ntrx    =       1

Nature and format of output:
     ntxo    =       2, ntpr    =    1000, ntrx    =       1, ntwr    =    1000
     iwrap   =       0, ntwx    =   50000, ntwv    =      -1, ntwe    =       0
     ioutfm  =       1, ntwprt  =       0, idecomp =       0, rbornstat=      0

Potential function:
     ntf     =       2, ntb     =       1, igb     =       0, nsnb    =      25
     ipol    =       0, gbsa    =       0, iesp    =       0
     dielc   =   1.00000, cut     =  10.00000, intdiel =   1.00000

Frozen or restrained atoms:
     ibelly  =       0, ntr     =       0

Molecular dynamics:
     nstlim  =    500000, nscm    =      1000, nrespa  =         1
     t       =   0.00000, dt      =   0.00200, vlimit  =  -1.00000

Langevin dynamics temperature regulation:
     ig      =  347832
     temp0   = 300.00000, tempi   = 300.00000, gamma_ln=   2.00000

SHAKE:
     ntc     =       2, jfastw  =       0
     tol     =   0.00001

Free energy options:
     icfe    =       1, ifsc    =       0, klambda =       1
     clambda =  0.1150, scalpha =  0.5000, scbeta  = 12.0000
     sceeorder =       2
     dynlmb =  0.0000 logdvdl =       0

Ewald parameters:
     verbose =       0, ew_type =       0, nbflag  =       1, use_pme =       1
     vdwmeth =       1, eedmeth =       1, netfrc  =       1
     Box X =   66.953   Box Y =   66.953   Box Z =   66.953
     Alpha =  109.471   Beta  =  109.471   Gamma =  109.471
     NFFT1 =   64       NFFT2 =   64       NFFT3 =   64
     Cutoff=   10.000   Tol   =0.100E-04
     Ewald Coefficient =  0.27511
     Interpolation order =    4
     TI Mask 1 :1; matches      7 atoms
     TI Mask 2 :2; matches      7 atoms
     TI region 1:       7 atoms
     TI region 2:       7 atoms
Removing charge of      -0.8188 from atom       8
Removing charge of      -0.8188 from atom       9
Removing charge of       0.8054 from atom      10
Removing charge of      -0.1021 from atom      11
Removing charge of      -0.0219 from atom      12
Removing charge of      -0.0219 from atom      13
Removing charge of      -0.0219 from atom      14
Total charge of  -0.99999900 removed from       7 atoms
     Checking for mismatched coordinates.

--------------------------------------------------------------------------------
   3.  ATOMIC COORDINATES AND VELOCITIES
--------------------------------------------------------------------------------

default_name
 begin time read from input coords =     0.000 ps

 Number of triangulated 3-point waters found:        0

     Sum of charges for TI region  1 =  -0.99999900
     Skip neutralizing charges...

     Sum of charges for TI region  2 =   0.00000000
     Skip neutralizing charges...

--------------------------------------------------------------------------------
   4.  RESULTS
 NSTEP =        0   TIME(PS) =       0.000  TEMP(K) =   218.24  PRESS =     0.0
 Etot   =        14.5707  EKtot   =         3.9032  EPtot      =        10.6675
 BOND   =         0.0316  ANGLE   =         2.8152  DIHED      =         5.2200
 1-4 NB =         0.2819  1-4 EEL =         9.2255  VDWAALS    =        -0.0001
 EELEC  =        -6.9066  EHBOND  =         0.0000  RESTRAINT  =         0.0000
 DV/DL  =        -2.6204
 ------------------------------------------------------------------------------

      A V E R A G E S   O V E R    1000 S T E P S

 NSTEP =     1000   TIME(PS) =       2.000  TEMP(K) =   244.02  PRESS =     0.0
 Etot   =        17.5628  EKtot   =         4.3641  EPtot      =        13.1987
 BOND   =         0.7852  ANGLE   =         4.4999  DIHED      =         5.2584
 1-4 NB =         0.3334  1-4 EEL =         9.2312  VDWAALS    =        -0.0001
 EELEC  =        -6.9093  EHBOND  =         0.0000  RESTRAINT  =         0.0000
 DV/DL  =        -2.6237
 ------------------------------------------------------------------------------

      R M S  F L U C T U A T I O N S

 NSTEP =     1000   TIME(PS) =       2.000  TEMP(K) =    70.96  PRESS =     0.0
 Etot   =         1.5270  EKtot   =         1.2691  EPtot      =         1.1345
 BOND   =         0.5806  ANGLE   =         0.9015  DIHED      =         0.0571
 1-4 NB =         0.1397  1-4 EEL =         0.1013  VDWAALS    =         0.0000
 EELEC  =         0.0019  EHBOND  =         0.0000  RESTRAINT  =         0.0000
 DV/DL  =         0.1144
 ------------------------------------------------------------------------------

      A V E R A G E S   O V E R    1000 S T E P S

 NSTEP =     1000   TIME(PS) =       2.000  TEMP(K) =   244.02  PRESS =     0.0
 Etot   =        17.5628  EKtot   =         4.3641  EPtot      =        13.1987
 BOND   =         0.7852  ANGLE   =         4.4999  DIHED      =         5.2584
 1-4 NB =         0.3334  1-4 EEL =         9.2312  VDWAALS    =        -0.0001
 EELEC  =        -6.9093  EHBOND  =         0.0000  RESTRAINT  =         0.0000
 DV/DL  =        -2.6237
 ------------------------------------------------------------------------------

      R M S  F L U C T U A T I O N S

 NSTEP =     1000   TIME(PS) =       2.000  TEMP(K) =    70.96  PRESS =     0.0
 Etot   =         1.5270  EKtot   =         1.2691  EPtot      =         1.1345
 BOND   =         0.5806  ANGLE   =         0.9015  DIHED      =         0.0571
 1-4 NB =         0.1397  1-4 EEL =         0.1013  VDWAALS    =         0.0000
 EELEC  =         0.0019  EHBOND  =         0.0000  RESTRAINT  =         0.0000
 DV/DL  =         0.1144
 ------------------------------------------------------------------------------

      DV/DL, AVERAGES OVER    1000 STEPS

 NSTEP =     1000   TIME(PS) =       2.000  TEMP(K) =    70.96  PRESS =     0.0
 Etot   =         0.0000  EKtot   =         0.0000  EPtot      =        -2.6237
 BOND   =         0.0000  ANGLE   =         0.0000  DIHED      =         0.0000
 1-4 NB =         0.0000  1-4 EEL =       -10.4313  VDWAALS    =         0.0000
 EELEC  =         7.8076  EHBOND  =         0.0000  RESTRAINT  =         0.0000
 DV/DL  =        -2.6237
 ------------------------------------------------------------------------------

      A V E R A G E S   O V E R    1000 S T E P S

 NSTEP =     2000   TIME(PS) =       4.000  TEMP(K) =   348.83  PRESS =     0.0
 Etot   =        20.0346  EKtot   =         6.2388  EPtot      =        13.7958
 BOND   =         1.0254  ANGLE   =         4.8089  DIHED      =         5.2969
 1-4 NB =         0.3445  1-4 EEL =         9.2302  VDWAALS    =        -0.0001
 EELEC  =        -6.9100  EHBOND  =         0.0000  RESTRAINT  =         0.0000
 DV/DL  =        -2.6219
 ------------------------------------------------------------------------------

      R M S  F L U C T U A T I O N S

 NSTEP =     2000   TIME(PS) =       4.000  TEMP(K) =    83.84  PRESS =     0.0
 Etot   =         1.6125  EKtot   =         1.4995  EPtot      =         1.2158
 BOND   =         0.8212  ANGLE   =         1.0270  DIHED      =         0.0851
 1-4 NB =         0.2035  1-4 EEL =         0.1612  VDWAALS    =         0.0000
 EELEC  =         0.0025  EHBOND  =         0.0000  RESTRAINT  =         0.0000
 DV/DL  =         0.1822
 ------------------------------------------------------------------------------

      A V E R A G E S   O V E R    1000 S T E P S

 NSTEP =     2000   TIME(PS) =       4.000  TEMP(K) =   348.83  PRESS =     0.0
 Etot   =        20.0346  EKtot   =         6.2388  EPtot      =        13.7958
 BOND   =         1.0254  ANGLE   =         4.8089  DIHED      =         5.2969
 1-4 NB =         0.3445  1-4 EEL =         9.2302  VDWAALS    =        -0.0001
 EELEC  =        -6.9100  EHBOND  =         0.0000  RESTRAINT  =         0.0000
 DV/DL  =        -2.6219
 ------------------------------------------------------------------------------

      R M S  F L U C T U A T I O N S

 NSTEP =     2000   TIME(PS) =       4.000  TEMP(K) =    83.84  PRESS =     0.0
 Etot   =         1.6125  EKtot   =         1.4995  EPtot      =         1.2158
 BOND   =         0.8212  ANGLE   =         1.0270  DIHED      =         0.0851
 1-4 NB =         0.2035  1-4 EEL =         0.1612  VDWAALS    =         0.0000
 EELEC  =         0.0025  EHBOND  =         0.0000  RESTRAINT  =         0.0000
 DV/DL  =         0.1822
 ------------------------------------------------------------------------------

      DV/DL, AVERAGES OVER    1000 STEPS

 NSTEP =     2000   TIME(PS) =       4.000  TEMP(K) =    83.84  PRESS =     0.0
 Etot   =         0.0000  EKtot   =         0.0000  EPtot      =        -2.6219
 BOND   =         0.0000  ANGLE   =         0.0000  DIHED      =         0.0000
 1-4 NB =         0.0000  1-4 EEL =       -10.4302  VDWAALS    =         0.0000
 EELEC  =         7.8084  EHBOND  =         0.0000  RESTRAINT  =         0.0000
 DV/DL  =        -2.6219
 ------------------------------------------------------------------------------

      A V E R A G E S   O V E R    1000 S T E P S

 NSTEP =   500000   TIME(PS) =    1000.000  TEMP(K) =   335.25  PRESS =     0.0
 Etot   =        20.7400  EKtot   =         5.9958  EPtot      =        14.7442
 BOND   =         1.0291  ANGLE   =         5.7250  DIHED      =         5.2984
 1-4 NB =         0.3598  1-4 EEL =         9.2407  VDWAALS    =        -0.0001
 EELEC  =        -6.9087  EHBOND  =         0.0000  RESTRAINT  =         0.0000
 DV/DL  =        -2.6352
 ------------------------------------------------------------------------------

      R M S  F L U C T U A T I O N S

 NSTEP =   500000   TIME(PS) =    1000.000  TEMP(K) =   101.73  PRESS =     0.0
 Etot   =         1.8335  EKtot   =         1.8193  EPtot      =         1.2413
 BOND   =         0.7468  ANGLE   =         1.1232  DIHED      =         0.0804
 1-4 NB =         0.1913  1-4 EEL =         0.1295  VDWAALS    =         0.0000
 EELEC  =         0.0026  EHBOND  =         0.0000  RESTRAINT  =         0.0000
 DV/DL  =         0.1462
 ------------------------------------------------------------------------------

      A V E R A G E S   O V E R    1000 S T E P S

 NSTEP =   500000   TIME(PS) =    1000.000  TEMP(K) =   335.25  PRESS =     0.0
 Etot   =        20.7400  EKtot   =         5.9958  EPtot      =        14.7442
 BOND   =         1.0291  ANGLE   =         5.7250  DIHED      =         5.2984
 1-4 NB =         0.3598  1-4 EEL =         9.2407  VDWAALS    =        -0.0001
 EELEC  =        -6.9087  EHBOND  =         0.0000  RESTRAINT  =         0.0000
 DV/DL  =        -2.6352
 ------------------------------------------------------------------------------

      R M S  F L U C T U A T I O N S

 NSTEP =   500000   TIME(PS) =    1000.000  TEMP(K) =   101.73  PRESS =     0.0
 Etot   =         1.8335  EKtot   =         1.8193  EPtot      =         1.2413
 BOND   =         0.7468  ANGLE   =         1.1232  DIHED      =         0.0804
 1-4 NB =         0.1913  1-4 EEL =         0.1295  VDWAALS    =         0.0000
 EELEC  =         0.0026  EHBOND  =         0.0000  RESTRAINT  =         0.0000
 DV/DL  =         0.1462
 ------------------------------------------------------------------------------

      DV/DL, AVERAGES OVER    1000 STEPS

 NSTEP =   500000   TIME(PS) =    1000.000  TEMP(K) =   101.73  PRESS =     0.0
 Etot   =         0.0000  EKtot   =         0.0000  EPtot      =        -2.6352
 BOND   =         0.0000  ANGLE   =         0.0000  DIHED      =         0.0000
 1-4 NB =         0.0000  1-4 EEL =       -10.4420  VDWAALS    =         0.0000
 EELEC  =         7.8068  EHBOND  =         0.0000  RESTRAINT  =         0.0000
 DV/DL  =        -2.6352
 ------------------------------------------------------------------------------

      A V E R A G E S   O V E R  500000 S T E P S

 NSTEP =   500000   TIME(PS) =    1000.000  TEMP(K) =   302.47  PRESS =     0.0
 Etot   =        19.5852  EKtot   =         5.4095  EPtot      =        14.1757
 BOND   =         1.0152  ANGLE   =         5.1919  DIHED      =         5.2802
 1-4 NB =         0.3604  1-4 EEL =         9.2374  VDWAALS    =        -0.0001
 EELEC  =        -6.9094  EHBOND  =         0.0000  RESTRAINT  =         0.0000
 DV/DL  =        -2.6307
 ------------------------------------------------------------------------------

      R M S  F L U C T U A T I O N S

 NSTEP =   500000   TIME(PS) =    1000.000  TEMP(K) =   101.18  PRESS =     0.0
 Etot   =         2.3581  EKtot   =         1.8096  EPtot      =         1.4974
 BOND   =         0.8140  ANGLE   =         1.2337  DIHED      =         0.0893
 1-4 NB =         0.2079  1-4 EEL =         0.1452  VDWAALS    =         0.0000
 EELEC  =         0.0025  EHBOND  =         0.0000  RESTRAINT  =         0.0000
 DV/DL  =         0.1640
 ------------------------------------------------------------------------------

      A V E R A G E S   O V E R  500000 S T E P S

 NSTEP =   500000   TIME(PS) =    1000.000  TEMP(K) =   302.47  PRESS =     0.0
 Etot   =        19.5852  EKtot   =         5.4095  EPtot      =        14.1757
 BOND   =         1.0152  ANGLE   =         5.1919  DIHED      =         5.2802
 1-4 NB =         0.3604  1-4 EEL =         9.2374  VDWAALS    =        -0.0001
 EELEC  =        -6.9094  EHBOND  =         0.0000  RESTRAINT  =         0.0000
 DV/DL  =        -2.6307
 ------------------------------------------------------------------------------

      R M S  F L U C T U A T I O N S

 NSTEP =   500000   TIME(PS) =    1000.000  TEMP(K) =   101.18  PRESS =     0.0
 Etot   =         2.3581  EKtot   =         1.8096  EPtot      =         1.4974
 BOND   =         0.8140  ANGLE   =         1.2337  DIHED      =         0.0893
 1-4 NB =         0.2079  1-4 EEL =         0.1452  VDWAALS    =         0.0000
 EELEC  =         0.0025  EHBOND  =         0.0000  RESTRAINT  =         0.0000
 DV/DL  =         0.1640
 ------------------------------------------------------------------------------

      DV/DL, AVERAGES OVER  500000 STEPS

 NSTEP =   500000   TIME(PS) =    1000.000  TEMP(K) =   101.18  PRESS =     0.0
 Etot   =         0.0000  EKtot   =         0.0000  EPtot      =        -2.6307
 BOND   =         0.0000  ANGLE   =         0.0000  DIHED      =         0.0000
 1-4 NB =         0.0000  1-4 EEL =       -10.4383  VDWAALS    =         0.0000
 EELEC  =         7.8076  EHBOND  =         0.0000  RESTRAINT  =         0.0000
 DV/DL  =        -2.6307
 ------------------------------------------------------------------------------
