-------------------------------------------------------
          Amber 20 PMEMD                              2020
          -------------------------------------------------------

  [-O]verwriting output

File Assignments:

 Here is the input file:

 &cntrl
   nstlim=500000, nscm=1000,
   ntx=5, irest=1, ntpr=1000,
   tempi=300.0, temp0=300.0, ntt=3, gamma_ln=2.0,
   ntp=1, pres0=1.01325, taup=5.0,
   ntb=2, igb=0, cut=10.0,
   dt=0.002, ig=-1,
   ntc=2, ntf=2,
   iwrap=0,
   ntwr=1000, ntwx=50000, ntave=1000,
   ioutfm=1, ntwv=-1,
   ifsc = 0, icfe=1,
   clambda=0.56262,
   timask1=':1',
   timask2=':2', crgmask = ':2',
/

Note: ig = -1. Setting random seed to   967111 based on wallclock time in
      microseconds.

--------------------------------------------------------------------------------
   1.  RESOURCE   USE:
--------------------------------------------------------------------------------

 getting box info from netcdf restart file
 NATOM  =   20855 NTYPES =       6 NBONH =   20847 MBONA  =       6
 NTHETH =      12 MTHETA =       6 NPHIH =      24 MPHIA  =       2
 NHPARM =       0 NPARM  =       0 NNB   =   27832 NRES   =    6949
 NBONA  =       6 NTHETA =       6 NPHIA =       2 NUMBND =       5
 NUMANG =       4 NPTRA  =       3 NATYP =       6 NPHB   =       1
 IFBOX  =       2 NMXRS  =       7 IFCAP =       0 NEXTRA =       0
 NCOPY  =       0

     BOX TYPE: TRUNCATED OCTAHEDRON

--------------------------------------------------------------------------------
   2.  CONTROL  DATA  FOR  THE  RUN
--------------------------------------------------------------------------------

default_name

General flags:
     imin    =       0, nmropt  =       0

Nature and format of input:
     ntx     =       5, irest   =       1, ntrx    =       1

Nature and format of output:
     ntxo    =       2, ntpr    =    1000, ntrx    =       1, ntwr    =    1000
     iwrap   =       0, ntwx    =   50000, ntwv    =      -1, ntwe    =       0
     ioutfm  =       1, ntwprt  =       0, idecomp =       0, rbornstat=      0

Potential function:
     ntf     =       2, ntb     =       2, igb     =       0, nsnb    =      25
     ipol    =       0, gbsa    =       0, iesp    =       0
     dielc   =   1.00000, cut     =  10.00000, intdiel =   1.00000

Frozen or restrained atoms:
     ibelly  =       0, ntr     =       0

Molecular dynamics:
     nstlim  =    500000, nscm    =      1000, nrespa  =         1
     t       =   0.00000, dt      =   0.00200, vlimit  =  -1.00000

Langevin dynamics temperature regulation:
     ig      =  967111
     temp0   = 300.00000, tempi   = 300.00000, gamma_ln=   2.00000

Pressure regulation:
     ntp     =       1
     pres0   =   1.01325, comp    =  44.60000, taup    =   5.00000

SHAKE:
     ntc     =       2, jfastw  =       0
     tol     =   0.00001

Free energy options:
     icfe    =       1, ifsc    =       0, klambda =       1
     clambda =  0.5626, scalpha =  0.5000, scbeta  = 12.0000
     sceeorder =       2
     dynlmb =  0.0000 logdvdl =       0

Ewald parameters:
     verbose =       0, ew_type =       0, nbflag  =       1, use_pme =       1
     vdwmeth =       1, eedmeth =       1, netfrc  =       1
     Box X =   66.953   Box Y =   66.953   Box Z =   66.953
     Alpha =  109.471   Beta  =  109.471   Gamma =  109.471
     NFFT1 =   64       NFFT2 =   64       NFFT3 =   64
     Cutoff=   10.000   Tol   =0.100E-04
     Ewald Coefficient =  0.27511
     Interpolation order =    4
     TI Mask 1 :1; matches      7 atoms
     TI Mask 2 :2; matches      7 atoms
     TI region 1:   20848 atoms
     TI region 2:   20848 atoms
Removing charge of      -0.8188 from atom       8
Removing charge of      -0.8188 from atom       9
Removing charge of       0.8054 from atom      10
Removing charge of      -0.1021 from atom      11
Removing charge of      -0.0219 from atom      12
Removing charge of      -0.0219 from atom      13
Removing charge of      -0.0219 from atom      14
Total charge of  -0.99999900 removed from       7 atoms
     Checking for mismatched coordinates.

--------------------------------------------------------------------------------
   3.  ATOMIC COORDINATES AND VELOCITIES
--------------------------------------------------------------------------------

default_name
 begin time read from input coords =   200.000 ps

 Number of triangulated 3-point waters found:     6947

     Sum of charges for TI region  1 =  -0.99999900
     Skip neutralizing charges...

     Sum of charges for TI region  2 =   0.00000000
     Skip neutralizing charges...

--------------------------------------------------------------------------------
   4.  RESULTS
 NSTEP =     1000   TIME(PS) =     202.000  TEMP(K) =   300.42  PRESS =  -851.1
 Etot   =    -52635.0526  EKtot   =     12447.3787  EPtot      =    -65082.4313
 BOND   =         0.0838  ANGLE   =         7.4169  DIHED      =         5.4132
 1-4 NB =         0.9729  1-4 EEL =         4.6551  VDWAALS    =      9433.7624
 EELEC  =    -74534.7355  EHBOND  =         0.0000  RESTRAINT  =         0.0000
 EKCMT  =      6241.5436  VIRIAL  =     10416.3069  VOLUME     =    227170.9070
                                                    Density    =         0.9153
 DV/DL  =        51.3615
 ------------------------------------------------------------------------------

      A V E R A G E S   O V E R    1000 S T E P S

 NSTEP =     1000   TIME(PS) =     202.000  TEMP(K) =   300.27  PRESS =  -945.8
 Etot   =    -52584.6479  EKtot   =     12441.0327  EPtot      =    -65025.6806
 BOND   =         0.9468  ANGLE   =         4.7629  DIHED      =         5.2580
 1-4 NB =         0.4009  1-4 EEL =         4.5807  VDWAALS    =      9428.0544
 EELEC  =    -74469.6842  EHBOND  =         0.0000  RESTRAINT  =         0.0000
 EKCMT  =      6254.8169  VIRIAL  =     10933.2308  VOLUME     =    229016.8313
                                                    Density    =         0.9079
 DV/DL  =        75.7035
 ------------------------------------------------------------------------------

      R M S  F L U C T U A T I O N S

 NSTEP =     1000   TIME(PS) =     202.000  TEMP(K) =     1.99  PRESS =   118.7
 Etot   =        81.4324  EKtot   =        82.3638  EPtot      =        87.6390
 BOND   =         0.6806  ANGLE   =         0.8494  DIHED      =         0.0594
 1-4 NB =         0.2061  1-4 EEL =         0.0699  VDWAALS    =        92.3175
 EELEC  =       134.1177  EHBOND  =         0.0000  RESTRAINT  =         0.0000
 EKCMT  =        60.2156  VIRIAL  =       593.7042  VOLUME     =      1102.8641
                                                    Density    =         0.0044
 DV/DL  =        11.4554
 ------------------------------------------------------------------------------

      A V E R A G E S   O V E R    1000 S T E P S

 NSTEP =     1000   TIME(PS) =     202.000  TEMP(K) =   300.27  PRESS =  -945.8
 Etot   =    -52584.6479  EKtot   =     12441.0327  EPtot      =    -65025.6806
 BOND   =         0.9468  ANGLE   =         4.7629  DIHED      =         5.2580
 1-4 NB =         0.4009  1-4 EEL =         4.5807  VDWAALS    =      9428.0544
 EELEC  =    -74469.6842  EHBOND  =         0.0000  RESTRAINT  =         0.0000
 EKCMT  =      6254.8169  VIRIAL  =     10933.2308  VOLUME     =    229016.8313
                                                    Density    =         0.9079
 DV/DL  =        75.7035
 ------------------------------------------------------------------------------

      R M S  F L U C T U A T I O N S

 NSTEP =     1000   TIME(PS) =     202.000  TEMP(K) =     1.99  PRESS =   118.7
 Etot   =        81.4324  EKtot   =        82.3638  EPtot      =        87.6390
 BOND   =         0.6806  ANGLE   =         0.8494  DIHED      =         0.0594
 1-4 NB =         0.2061  1-4 EEL =         0.0699  VDWAALS    =        92.3175
 EELEC  =       134.1177  EHBOND  =         0.0000  RESTRAINT  =         0.0000
 EKCMT  =        60.2156  VIRIAL  =       593.7042  VOLUME     =      1102.8641
                                                    Density    =         0.0044
 DV/DL  =        11.4554
 ------------------------------------------------------------------------------

      DV/DL, AVERAGES OVER    1000 STEPS

 NSTEP =     1000   TIME(PS) =     202.000  TEMP(K) =     1.99  PRESS =     0.0
 Etot   =         0.0000  EKtot   =         0.0000  EPtot      =        75.7035
 BOND   =         0.0000  ANGLE   =         0.0000  DIHED      =         0.0000
 1-4 NB =         0.0000  1-4 EEL =       -10.4730  VDWAALS    =         0.0000
 EELEC  =        86.1765  EHBOND  =         0.0000  RESTRAINT  =         0.0000
 EKCMT  =         0.0000  VIRIAL  =         0.0000  VOLUME     =         0.0000
                                                    Density    =         0.0000
 DV/DL  =        75.7035
 ------------------------------------------------------------------------------

      A V E R A G E S   O V E R    1000 S T E P S

 NSTEP =     2000   TIME(PS) =     204.000  TEMP(K) =   300.02  PRESS =  -785.4
 Etot   =    -52905.6182  EKtot   =     12430.5532  EPtot      =    -65336.1714
 BOND   =         1.1469  ANGLE   =         5.1687  DIHED      =         5.2819
 1-4 NB =         0.4303  1-4 EEL =         4.5844  VDWAALS    =      9557.8213
 EELEC  =    -74910.6049  EHBOND  =         0.0000  RESTRAINT  =         0.0000
 EKCMT  =      6253.0636  VIRIAL  =     10078.5689  VOLUME     =    225563.1321
                                                    Density    =         0.9218
 DV/DL  =        69.9047
 ------------------------------------------------------------------------------

      R M S  F L U C T U A T I O N S

 NSTEP =     2000   TIME(PS) =     204.000  TEMP(K) =     1.86  PRESS =   101.0
 Etot   =       155.7698  EKtot   =        77.1318  EPtot      =       171.2702
 BOND   =         0.7849  ANGLE   =         1.1469  DIHED      =         0.0817
 1-4 NB =         0.2552  1-4 EEL =         0.0791  VDWAALS    =       105.2101
 EELEC  =       233.1518  EHBOND  =         0.0000  RESTRAINT  =         0.0000
 EKCMT  =        55.2624  VIRIAL  =       486.6431  VOLUME     =       909.7287
                                                    Density    =         0.0037
 DV/DL  =        10.6676
 ------------------------------------------------------------------------------

      A V E R A G E S   O V E R    1000 S T E P S

 NSTEP =     2000   TIME(PS) =     204.000  TEMP(K) =   300.02  PRESS =  -785.4
 Etot   =    -52905.6182  EKtot   =     12430.5532  EPtot      =    -65336.1714
 BOND   =         1.1469  ANGLE   =         5.1687  DIHED      =         5.2819
 1-4 NB =         0.4303  1-4 EEL =         4.5844  VDWAALS    =      9557.8213
 EELEC  =    -74910.6049  EHBOND  =         0.0000  RESTRAINT  =         0.0000
 EKCMT  =      6253.0636  VIRIAL  =     10078.5689  VOLUME     =    225563.1321
                                                    Density    =         0.9218
 DV/DL  =        69.9047
 ------------------------------------------------------------------------------

      R M S  F L U C T U A T I O N S

 NSTEP =     2000   TIME(PS) =     204.000  TEMP(K) =     1.86  PRESS =   101.0
 Etot   =       155.7698  EKtot   =        77.1318  EPtot      =       171.2702
 BOND   =         0.7849  ANGLE   =         1.1469  DIHED      =         0.0817
 1-4 NB =         0.2552  1-4 EEL =         0.0791  VDWAALS    =       105.2101
 EELEC  =       233.1518  EHBOND  =         0.0000  RESTRAINT  =         0.0000
 EKCMT  =        55.2624  VIRIAL  =       486.6431  VOLUME     =       909.7287
                                                    Density    =         0.0037
 DV/DL  =        10.6676
 ------------------------------------------------------------------------------

      DV/DL, AVERAGES OVER    1000 STEPS

 NSTEP =     2000   TIME(PS) =     204.000  TEMP(K) =     1.86  PRESS =     0.0
 Etot   =         0.0000  EKtot   =         0.0000  EPtot      =        69.9047
 BOND   =         0.0000  ANGLE   =         0.0000  DIHED      =         0.0000
 1-4 NB =         0.0000  1-4 EEL =       -10.4815  VDWAALS    =         0.0000
 EELEC  =        80.3862  EHBOND  =         0.0000  RESTRAINT  =         0.0000
 EKCMT  =         0.0000  VIRIAL  =         0.0000  VOLUME     =         0.0000
                                                    Density    =         0.0000
 DV/DL  =        69.9047
 ------------------------------------------------------------------------------

      A V E R A G E S   O V E R    1000 S T E P S

 NSTEP =   500000   TIME(PS) =    1200.000  TEMP(K) =   299.44  PRESS =   -23.1
 Etot   =    -53890.4261  EKtot   =     12406.5675  EPtot      =    -66296.9936
 BOND   =         0.7438  ANGLE   =         5.6090  DIHED      =         5.3170
 1-4 NB =         0.4296  1-4 EEL =         4.5894  VDWAALS    =      9891.5462
 EELEC  =    -76205.2285  EHBOND  =         0.0000  RESTRAINT  =         0.0000
 EKCMT  =      6222.0947  VIRIAL  =      6327.3736  VOLUME     =    211369.1543
                                                    Density    =         0.9837
 DV/DL  =        71.4114
 ------------------------------------------------------------------------------

      R M S  F L U C T U A T I O N S

 NSTEP =   500000   TIME(PS) =    1200.000  TEMP(K) =     1.80  PRESS =   103.5
 Etot   =        45.4427  EKtot   =        74.5699  EPtot      =        71.1125
 BOND   =         0.5899  ANGLE   =         1.1983  DIHED      =         0.1140
 1-4 NB =         0.2066  1-4 EEL =         0.0611  VDWAALS    =       101.9084
 EELEC  =       129.3859  EHBOND  =         0.0000  RESTRAINT  =         0.0000
 EKCMT  =        65.8672  VIRIAL  =       480.6994  VOLUME     =        35.6589
                                                    Density    =         0.0002
 DV/DL  =        10.0325
 ------------------------------------------------------------------------------

      A V E R A G E S   O V E R    1000 S T E P S

 NSTEP =   500000   TIME(PS) =    1200.000  TEMP(K) =   299.44  PRESS =   -23.1
 Etot   =    -53890.4261  EKtot   =     12406.5675  EPtot      =    -66296.9936
 BOND   =         0.7438  ANGLE   =         5.6090  DIHED      =         5.3170
 1-4 NB =         0.4296  1-4 EEL =         4.5894  VDWAALS    =      9891.5462
 EELEC  =    -76205.2285  EHBOND  =         0.0000  RESTRAINT  =         0.0000
 EKCMT  =      6222.0947  VIRIAL  =      6327.3736  VOLUME     =    211369.1543
                                                    Density    =         0.9837
 DV/DL  =        71.4114
 ------------------------------------------------------------------------------

      R M S  F L U C T U A T I O N S

 NSTEP =   500000   TIME(PS) =    1200.000  TEMP(K) =     1.80  PRESS =   103.5
 Etot   =        45.4427  EKtot   =        74.5699  EPtot      =        71.1125
 BOND   =         0.5899  ANGLE   =         1.1983  DIHED      =         0.1140
 1-4 NB =         0.2066  1-4 EEL =         0.0611  VDWAALS    =       101.9084
 EELEC  =       129.3859  EHBOND  =         0.0000  RESTRAINT  =         0.0000
 EKCMT  =        65.8672  VIRIAL  =       480.6994  VOLUME     =        35.6589
                                                    Density    =         0.0002
 DV/DL  =        10.0325
 ------------------------------------------------------------------------------

      DV/DL, AVERAGES OVER    1000 STEPS

 NSTEP =   500000   TIME(PS) =    1200.000  TEMP(K) =     1.80  PRESS =     0.0
 Etot   =         0.0000  EKtot   =         0.0000  EPtot      =        71.4114
 BOND   =         0.0000  ANGLE   =         0.0000  DIHED      =         0.0000
 1-4 NB =         0.0000  1-4 EEL =       -10.4928  VDWAALS    =         0.0000
 EELEC  =        81.9042  EHBOND  =         0.0000  RESTRAINT  =         0.0000
 EKCMT  =         0.0000  VIRIAL  =         0.0000  VOLUME     =         0.0000
                                                    Density    =         0.0000
 DV/DL  =        71.4114
 ------------------------------------------------------------------------------

      A V E R A G E S   O V E R  500000 S T E P S

 NSTEP =   500000   TIME(PS) =    1200.000  TEMP(K) =   300.08  PRESS =    -9.0
 Etot   =    -53827.4482  EKtot   =     12433.0438  EPtot      =    -66260.4920
 BOND   =         0.9704  ANGLE   =         5.1805  DIHED      =         5.2804
 1-4 NB =         0.4224  1-4 EEL =         4.5850  VDWAALS    =      9908.4342
 EELEC  =    -76185.3648  EHBOND  =         0.0000  RESTRAINT  =         0.0000
 EKCMT  =      6237.2021  VIRIAL  =      6280.2381  VOLUME     =    211758.1220
                                                    Density    =         0.9820
 DV/DL  =        72.3329
 ------------------------------------------------------------------------------

      R M S  F L U C T U A T I O N S

 NSTEP =   500000   TIME(PS) =    1200.000  TEMP(K) =     2.07  PRESS =   149.3
 Etot   =       169.1428  EKtot   =        85.8649  EPtot      =       147.0655
 BOND   =         0.7911  ANGLE   =         1.2169  DIHED      =         0.0897
 1-4 NB =         0.2438  1-4 EEL =         0.0729  VDWAALS    =       128.3943
 EELEC  =       226.0273  EHBOND  =         0.0000  RESTRAINT  =         0.0000
 EKCMT  =        61.4412  VIRIAL  =       691.4720  VOLUME     =      1281.6765
                                                    Density    =         0.0056
 DV/DL  =        10.5287
 ------------------------------------------------------------------------------

      A V E R A G E S   O V E R  500000 S T E P S

 NSTEP =   500000   TIME(PS) =    1200.000  TEMP(K) =   300.08  PRESS =    -9.0
 Etot   =    -53827.4482  EKtot   =     12433.0438  EPtot      =    -66260.4920
 BOND   =         0.9704  ANGLE   =         5.1805  DIHED      =         5.2804
 1-4 NB =         0.4224  1-4 EEL =         4.5850  VDWAALS    =      9908.4342
 EELEC  =    -76185.3648  EHBOND  =         0.0000  RESTRAINT  =         0.0000
 EKCMT  =      6237.2021  VIRIAL  =      6280.2381  VOLUME     =    211758.1220
                                                    Density    =         0.9820
 DV/DL  =        72.3329
 ------------------------------------------------------------------------------

      R M S  F L U C T U A T I O N S

 NSTEP =   500000   TIME(PS) =    1200.000  TEMP(K) =     2.07  PRESS =   149.3
 Etot   =       169.1428  EKtot   =        85.8649  EPtot      =       147.0655
 BOND   =         0.7911  ANGLE   =         1.2169  DIHED      =         0.0897
 1-4 NB =         0.2438  1-4 EEL =         0.0729  VDWAALS    =       128.3943
 EELEC  =       226.0273  EHBOND  =         0.0000  RESTRAINT  =         0.0000
 EKCMT  =        61.4412  VIRIAL  =       691.4720  VOLUME     =      1281.6765
                                                    Density    =         0.0056
 DV/DL  =        10.5287
 ------------------------------------------------------------------------------

      DV/DL, AVERAGES OVER  500000 STEPS

 NSTEP =   500000   TIME(PS) =    1200.000  TEMP(K) =     2.07  PRESS =     0.0
 Etot   =         0.0000  EKtot   =         0.0000  EPtot      =        72.3329
 BOND   =         0.0000  ANGLE   =         0.0000  DIHED      =         0.0000
 1-4 NB =         0.0000  1-4 EEL =       -10.4829  VDWAALS    =         0.0000
 EELEC  =        82.8158  EHBOND  =         0.0000  RESTRAINT  =         0.0000
 EKCMT  =         0.0000  VIRIAL  =         0.0000  VOLUME     =         0.0000
                                                    Density    =         0.0000
 DV/DL  =        72.3329
 ------------------------------------------------------------------------------
