-------------------------------------------------------
          Amber 20 PMEMD                              2020
          -------------------------------------------------------

  [-O]verwriting output

File Assignments:

 Here is the input file:

 &cntrl
   nstlim=500000, nscm=1000,
   ntx=5, irest=1, ntpr=1000,
   tempi=300.0, temp0=300.0, ntt=3, gamma_ln=2.0,
   ntp=1, pres0=1.01325, taup=5.0,
   ntb=2, igb=0, cut=10.0,
   dt=0.002, ig=-1,
   ntc=2, ntf=2,
   iwrap=0,
   ntwr=1000, ntwx=50000, ntave=1000,
   ioutfm=1, ntwv=-1,
   ifsc = 0, icfe=1,
   clambda=0.79366,
   timask1=':1',
   timask2=':2', crgmask = ':2',
/

Note: ig = -1. Setting random seed to    49281 based on wallclock time in
      microseconds.

--------------------------------------------------------------------------------
   1.  RESOURCE   USE:
--------------------------------------------------------------------------------

 getting box info from netcdf restart file
 NATOM  =   20855 NTYPES =       6 NBONH =   20847 MBONA  =       6
 NTHETH =      12 MTHETA =       6 NPHIH =      24 MPHIA  =       2
 NHPARM =       0 NPARM  =       0 NNB   =   27832 NRES   =    6949
 NBONA  =       6 NTHETA =       6 NPHIA =       2 NUMBND =       5
 NUMANG =       4 NPTRA  =       3 NATYP =       6 NPHB   =       1
 IFBOX  =       2 NMXRS  =       7 IFCAP =       0 NEXTRA =       0
 NCOPY  =       0

     BOX TYPE: TRUNCATED OCTAHEDRON

--------------------------------------------------------------------------------
   2.  CONTROL  DATA  FOR  THE  RUN
--------------------------------------------------------------------------------

default_name

General flags:
     imin    =       0, nmropt  =       0

Nature and format of input:
     ntx     =       5, irest   =       1, ntrx    =       1

Nature and format of output:
     ntxo    =       2, ntpr    =    1000, ntrx    =       1, ntwr    =    1000
     iwrap   =       0, ntwx    =   50000, ntwv    =      -1, ntwe    =       0
     ioutfm  =       1, ntwprt  =       0, idecomp =       0, rbornstat=      0

Potential function:
     ntf     =       2, ntb     =       2, igb     =       0, nsnb    =      25
     ipol    =       0, gbsa    =       0, iesp    =       0
     dielc   =   1.00000, cut     =  10.00000, intdiel =   1.00000

Frozen or restrained atoms:
     ibelly  =       0, ntr     =       0

Molecular dynamics:
     nstlim  =    500000, nscm    =      1000, nrespa  =         1
     t       =   0.00000, dt      =   0.00200, vlimit  =  -1.00000

Langevin dynamics temperature regulation:
     ig      =   49281
     temp0   = 300.00000, tempi   = 300.00000, gamma_ln=   2.00000

Pressure regulation:
     ntp     =       1
     pres0   =   1.01325, comp    =  44.60000, taup    =   5.00000

SHAKE:
     ntc     =       2, jfastw  =       0
     tol     =   0.00001

Free energy options:
     icfe    =       1, ifsc    =       0, klambda =       1
     clambda =  0.7937, scalpha =  0.5000, scbeta  = 12.0000
     sceeorder =       2
     dynlmb =  0.0000 logdvdl =       0

Ewald parameters:
     verbose =       0, ew_type =       0, nbflag  =       1, use_pme =       1
     vdwmeth =       1, eedmeth =       1, netfrc  =       1
     Box X =   66.953   Box Y =   66.953   Box Z =   66.953
     Alpha =  109.471   Beta  =  109.471   Gamma =  109.471
     NFFT1 =   64       NFFT2 =   64       NFFT3 =   64
     Cutoff=   10.000   Tol   =0.100E-04
     Ewald Coefficient =  0.27511
     Interpolation order =    4
     TI Mask 1 :1; matches      7 atoms
     TI Mask 2 :2; matches      7 atoms
     TI region 1:   20848 atoms
     TI region 2:   20848 atoms
Removing charge of      -0.8188 from atom       8
Removing charge of      -0.8188 from atom       9
Removing charge of       0.8054 from atom      10
Removing charge of      -0.1021 from atom      11
Removing charge of      -0.0219 from atom      12
Removing charge of      -0.0219 from atom      13
Removing charge of      -0.0219 from atom      14
Total charge of  -0.99999900 removed from       7 atoms
     Checking for mismatched coordinates.

--------------------------------------------------------------------------------
   3.  ATOMIC COORDINATES AND VELOCITIES
--------------------------------------------------------------------------------

default_name
 begin time read from input coords =   200.000 ps

 Number of triangulated 3-point waters found:     6947

     Sum of charges for TI region  1 =  -0.99999900
     Skip neutralizing charges...

     Sum of charges for TI region  2 =   0.00000000
     Skip neutralizing charges...

--------------------------------------------------------------------------------
   4.  RESULTS
 NSTEP =     1000   TIME(PS) =     202.000  TEMP(K) =   297.79  PRESS =  -666.0
 Etot   =    -52956.1267  EKtot   =     12338.1146  EPtot      =    -65294.2413
 BOND   =         1.1242  ANGLE   =         4.9909  DIHED      =         5.4945
 1-4 NB =         0.4138  1-4 EEL =         2.1976  VDWAALS    =      9574.7369
 EELEC  =    -74883.1993  EHBOND  =         0.0000  RESTRAINT  =         0.0000
 EKCMT  =      6209.6265  VIRIAL  =      9488.7302  VOLUME     =    228033.1922
                                                    Density    =         0.9118
 DV/DL  =        32.7639
 ------------------------------------------------------------------------------

      A V E R A G E S   O V E R    1000 S T E P S

 NSTEP =     1000   TIME(PS) =     202.000  TEMP(K) =   299.27  PRESS =  -733.3
 Etot   =    -52923.7492  EKtot   =     12399.5455  EPtot      =    -65323.2948
 BOND   =         1.4094  ANGLE   =         5.1409  DIHED      =         5.2842
 1-4 NB =         0.4706  1-4 EEL =         2.1696  VDWAALS    =      9609.5274
 EELEC  =    -74947.2968  EHBOND  =         0.0000  RESTRAINT  =         0.0000
 EKCMT  =      6209.2770  VIRIAL  =      9843.1850  VOLUME     =    229507.5056
                                                    Density    =         0.9060
 DV/DL  =        32.9353
 ------------------------------------------------------------------------------

      R M S  F L U C T U A T I O N S

 NSTEP =     1000   TIME(PS) =     202.000  TEMP(K) =     2.43  PRESS =   129.0
 Etot   =       137.6508  EKtot   =       100.6123  EPtot      =        85.6172
 BOND   =         0.9229  ANGLE   =         1.0934  DIHED      =         0.0800
 1-4 NB =         0.3264  1-4 EEL =         0.0446  VDWAALS    =       129.5409
 EELEC  =       166.2019  EHBOND  =         0.0000  RESTRAINT  =         0.0000
 EKCMT  =        74.7861  VIRIAL  =       631.7618  VOLUME     =       872.8443
                                                    Density    =         0.0034
 DV/DL  =         8.7436
 ------------------------------------------------------------------------------

      A V E R A G E S   O V E R    1000 S T E P S

 NSTEP =     1000   TIME(PS) =     202.000  TEMP(K) =   299.27  PRESS =  -733.3
 Etot   =    -52923.7492  EKtot   =     12399.5455  EPtot      =    -65323.2948
 BOND   =         1.4094  ANGLE   =         5.1409  DIHED      =         5.2842
 1-4 NB =         0.4706  1-4 EEL =         2.1696  VDWAALS    =      9609.5274
 EELEC  =    -74947.2968  EHBOND  =         0.0000  RESTRAINT  =         0.0000
 EKCMT  =      6209.2770  VIRIAL  =      9843.1850  VOLUME     =    229507.5056
                                                    Density    =         0.9060
 DV/DL  =        32.9353
 ------------------------------------------------------------------------------

      R M S  F L U C T U A T I O N S

 NSTEP =     1000   TIME(PS) =     202.000  TEMP(K) =     2.43  PRESS =   129.0
 Etot   =       137.6508  EKtot   =       100.6123  EPtot      =        85.6172
 BOND   =         0.9229  ANGLE   =         1.0934  DIHED      =         0.0800
 1-4 NB =         0.3264  1-4 EEL =         0.0446  VDWAALS    =       129.5409
 EELEC  =       166.2019  EHBOND  =         0.0000  RESTRAINT  =         0.0000
 EKCMT  =        74.7861  VIRIAL  =       631.7618  VOLUME     =       872.8443
                                                    Density    =         0.0034
 DV/DL  =         8.7436
 ------------------------------------------------------------------------------

      DV/DL, AVERAGES OVER    1000 STEPS

 NSTEP =     1000   TIME(PS) =     202.000  TEMP(K) =     2.43  PRESS =     0.0
 Etot   =         0.0000  EKtot   =         0.0000  EPtot      =        32.9353
 BOND   =         0.0000  ANGLE   =         0.0000  DIHED      =         0.0000
 1-4 NB =         0.0000  1-4 EEL =       -10.5146  VDWAALS    =         0.0000
 EELEC  =        43.4499  EHBOND  =         0.0000  RESTRAINT  =         0.0000
 EKCMT  =         0.0000  VIRIAL  =         0.0000  VOLUME     =         0.0000
                                                    Density    =         0.0000
 DV/DL  =        32.9353
 ------------------------------------------------------------------------------

      A V E R A G E S   O V E R    1000 S T E P S

 NSTEP =     2000   TIME(PS) =     204.000  TEMP(K) =   299.41  PRESS =  -612.7
 Etot   =    -53097.1831  EKtot   =     12405.3273  EPtot      =    -65502.5105
 BOND   =         0.6194  ANGLE   =         6.0806  DIHED      =         5.3089
 1-4 NB =         0.4979  1-4 EEL =         2.1708  VDWAALS    =      9667.6697
 EELEC  =    -75184.8579  EHBOND  =         0.0000  RESTRAINT  =         0.0000
 EKCMT  =      6209.3305  VIRIAL  =      9209.4907  VOLUME     =    226769.9664
                                                    Density    =         0.9169
 DV/DL  =        33.7243
 ------------------------------------------------------------------------------

      R M S  F L U C T U A T I O N S

 NSTEP =     2000   TIME(PS) =     204.000  TEMP(K) =     1.81  PRESS =    97.3
 Etot   =       135.0082  EKtot   =        74.8380  EPtot      =       132.6815
 BOND   =         0.5062  ANGLE   =         1.1195  DIHED      =         0.1118
 1-4 NB =         0.2820  1-4 EEL =         0.0303  VDWAALS    =       102.8693
 EELEC  =       189.8581  EHBOND  =         0.0000  RESTRAINT  =         0.0000
 EKCMT  =        61.5309  VIRIAL  =       491.0703  VOLUME     =       725.4301
                                                    Density    =         0.0029
 DV/DL  =        10.2167
 ------------------------------------------------------------------------------

      A V E R A G E S   O V E R    1000 S T E P S

 NSTEP =     2000   TIME(PS) =     204.000  TEMP(K) =   299.41  PRESS =  -612.7
 Etot   =    -53097.1831  EKtot   =     12405.3273  EPtot      =    -65502.5105
 BOND   =         0.6194  ANGLE   =         6.0806  DIHED      =         5.3089
 1-4 NB =         0.4979  1-4 EEL =         2.1708  VDWAALS    =      9667.6697
 EELEC  =    -75184.8579  EHBOND  =         0.0000  RESTRAINT  =         0.0000
 EKCMT  =      6209.3305  VIRIAL  =      9209.4907  VOLUME     =    226769.9664
                                                    Density    =         0.9169
 DV/DL  =        33.7243
 ------------------------------------------------------------------------------

      R M S  F L U C T U A T I O N S

 NSTEP =     2000   TIME(PS) =     204.000  TEMP(K) =     1.81  PRESS =    97.3
 Etot   =       135.0082  EKtot   =        74.8380  EPtot      =       132.6815
 BOND   =         0.5062  ANGLE   =         1.1195  DIHED      =         0.1118
 1-4 NB =         0.2820  1-4 EEL =         0.0303  VDWAALS    =       102.8693
 EELEC  =       189.8581  EHBOND  =         0.0000  RESTRAINT  =         0.0000
 EKCMT  =        61.5309  VIRIAL  =       491.0703  VOLUME     =       725.4301
                                                    Density    =         0.0029
 DV/DL  =        10.2167
 ------------------------------------------------------------------------------

      DV/DL, AVERAGES OVER    1000 STEPS

 NSTEP =     2000   TIME(PS) =     204.000  TEMP(K) =     1.81  PRESS =     0.0
 Etot   =         0.0000  EKtot   =         0.0000  EPtot      =        33.7243
 BOND   =         0.0000  ANGLE   =         0.0000  DIHED      =         0.0000
 1-4 NB =         0.0000  1-4 EEL =       -10.5207  VDWAALS    =         0.0000
 EELEC  =        44.2449  EHBOND  =         0.0000  RESTRAINT  =         0.0000
 EKCMT  =         0.0000  VIRIAL  =         0.0000  VOLUME     =         0.0000
                                                    Density    =         0.0000
 DV/DL  =        33.7243
 ------------------------------------------------------------------------------

      A V E R A G E S   O V E R    1000 S T E P S

 NSTEP =   500000   TIME(PS) =    1200.000  TEMP(K) =   300.62  PRESS =    21.7
 Etot   =    -53790.7128  EKtot   =     12455.3702  EPtot      =    -66246.0830
 BOND   =         1.1698  ANGLE   =         4.8973  DIHED      =         5.2831
 1-4 NB =         0.4348  1-4 EEL =         2.1680  VDWAALS    =      9914.7174
 EELEC  =    -76174.7535  EHBOND  =         0.0000  RESTRAINT  =         0.0000
 EKCMT  =      6246.6909  VIRIAL  =      6147.5056  VOLUME     =    211466.8138
                                                    Density    =         0.9833
 DV/DL  =        34.3893
 ------------------------------------------------------------------------------

      R M S  F L U C T U A T I O N S

 NSTEP =   500000   TIME(PS) =    1200.000  TEMP(K) =     2.01  PRESS =   132.3
 Etot   =        93.0835  EKtot   =        83.1330  EPtot      =        86.3813
 BOND   =         0.7869  ANGLE   =         0.8448  DIHED      =         0.0848
 1-4 NB =         0.2093  1-4 EEL =         0.0331  VDWAALS    =       117.6365
 EELEC  =       148.6873  EHBOND  =         0.0000  RESTRAINT  =         0.0000
 EKCMT  =        62.7302  VIRIAL  =       583.8253  VOLUME     =        45.1699
                                                    Density    =         0.0002
 DV/DL  =         9.0883
 ------------------------------------------------------------------------------

      A V E R A G E S   O V E R    1000 S T E P S

 NSTEP =   500000   TIME(PS) =    1200.000  TEMP(K) =   300.62  PRESS =    21.7
 Etot   =    -53790.7128  EKtot   =     12455.3702  EPtot      =    -66246.0830
 BOND   =         1.1698  ANGLE   =         4.8973  DIHED      =         5.2831
 1-4 NB =         0.4348  1-4 EEL =         2.1680  VDWAALS    =      9914.7174
 EELEC  =    -76174.7535  EHBOND  =         0.0000  RESTRAINT  =         0.0000
 EKCMT  =      6246.6909  VIRIAL  =      6147.5056  VOLUME     =    211466.8138
                                                    Density    =         0.9833
 DV/DL  =        34.3893
 ------------------------------------------------------------------------------

      R M S  F L U C T U A T I O N S

 NSTEP =   500000   TIME(PS) =    1200.000  TEMP(K) =     2.01  PRESS =   132.3
 Etot   =        93.0835  EKtot   =        83.1330  EPtot      =        86.3813
 BOND   =         0.7869  ANGLE   =         0.8448  DIHED      =         0.0848
 1-4 NB =         0.2093  1-4 EEL =         0.0331  VDWAALS    =       117.6365
 EELEC  =       148.6873  EHBOND  =         0.0000  RESTRAINT  =         0.0000
 EKCMT  =        62.7302  VIRIAL  =       583.8253  VOLUME     =        45.1699
                                                    Density    =         0.0002
 DV/DL  =         9.0883
 ------------------------------------------------------------------------------

      DV/DL, AVERAGES OVER    1000 STEPS

 NSTEP =   500000   TIME(PS) =    1200.000  TEMP(K) =     2.01  PRESS =     0.0
 Etot   =         0.0000  EKtot   =         0.0000  EPtot      =        34.3893
 BOND   =         0.0000  ANGLE   =         0.0000  DIHED      =         0.0000
 1-4 NB =         0.0000  1-4 EEL =       -10.5072  VDWAALS    =         0.0000
 EELEC  =        44.8965  EHBOND  =         0.0000  RESTRAINT  =         0.0000
 EKCMT  =         0.0000  VIRIAL  =         0.0000  VOLUME     =         0.0000
                                                    Density    =         0.0000
 DV/DL  =        34.3893
 ------------------------------------------------------------------------------

      A V E R A G E S   O V E R  500000 S T E P S

 NSTEP =   500000   TIME(PS) =    1200.000  TEMP(K) =   300.09  PRESS =    -8.9
 Etot   =    -53813.4345  EKtot   =     12433.4770  EPtot      =    -66246.9115
 BOND   =         0.9491  ANGLE   =         5.1565  DIHED      =         5.2814
 1-4 NB =         0.4678  1-4 EEL =         2.1692  VDWAALS    =      9905.5903
 EELEC  =    -76166.5258  EHBOND  =         0.0000  RESTRAINT  =         0.0000
 EKCMT  =      6236.3491  VIRIAL  =      6279.0553  VOLUME     =    211781.7757
                                                    Density    =         0.9819
 DV/DL  =        34.6003
 ------------------------------------------------------------------------------

      R M S  F L U C T U A T I O N S

 NSTEP =   500000   TIME(PS) =    1200.000  TEMP(K) =     2.08  PRESS =   143.3
 Etot   =       162.5894  EKtot   =        86.0310  EPtot      =       139.4164
 BOND   =         0.7762  ANGLE   =         1.1973  DIHED      =         0.0909
 1-4 NB =         0.2753  1-4 EEL =         0.0358  VDWAALS    =       127.0337
 EELEC  =       216.9516  EHBOND  =         0.0000  RESTRAINT  =         0.0000
 EKCMT  =        60.3883  VIRIAL  =       660.2419  VOLUME     =      1502.3151
                                                    Density    =         0.0066
 DV/DL  =         9.7469
 ------------------------------------------------------------------------------

      A V E R A G E S   O V E R  500000 S T E P S

 NSTEP =   500000   TIME(PS) =    1200.000  TEMP(K) =   300.09  PRESS =    -8.9
 Etot   =    -53813.4345  EKtot   =     12433.4770  EPtot      =    -66246.9115
 BOND   =         0.9491  ANGLE   =         5.1565  DIHED      =         5.2814
 1-4 NB =         0.4678  1-4 EEL =         2.1692  VDWAALS    =      9905.5903
 EELEC  =    -76166.5258  EHBOND  =         0.0000  RESTRAINT  =         0.0000
 EKCMT  =      6236.3491  VIRIAL  =      6279.0553  VOLUME     =    211781.7757
                                                    Density    =         0.9819
 DV/DL  =        34.6003
 ------------------------------------------------------------------------------

      R M S  F L U C T U A T I O N S

 NSTEP =   500000   TIME(PS) =    1200.000  TEMP(K) =     2.08  PRESS =   143.3
 Etot   =       162.5894  EKtot   =        86.0310  EPtot      =       139.4164
 BOND   =         0.7762  ANGLE   =         1.1973  DIHED      =         0.0909
 1-4 NB =         0.2753  1-4 EEL =         0.0358  VDWAALS    =       127.0337
 EELEC  =       216.9516  EHBOND  =         0.0000  RESTRAINT  =         0.0000
 EKCMT  =        60.3883  VIRIAL  =       660.2419  VOLUME     =      1502.3151
                                                    Density    =         0.0066
 DV/DL  =         9.7469
 ------------------------------------------------------------------------------

      DV/DL, AVERAGES OVER  500000 STEPS

 NSTEP =   500000   TIME(PS) =    1200.000  TEMP(K) =     2.08  PRESS =     0.0
 Etot   =         0.0000  EKtot   =         0.0000  EPtot      =        34.6003
 BOND   =         0.0000  ANGLE   =         0.0000  DIHED      =         0.0000
 1-4 NB =         0.0000  1-4 EEL =       -10.5126  VDWAALS    =         0.0000
 EELEC  =        45.1129  EHBOND  =         0.0000  RESTRAINT  =         0.0000
 EKCMT  =         0.0000  VIRIAL  =         0.0000  VOLUME     =         0.0000
                                                    Density    =         0.0000
 DV/DL  =        34.6003
 ------------------------------------------------------------------------------
