-------------------------------------------------------
          Amber 20 PMEMD                              2020
          -------------------------------------------------------

  [-O]verwriting output

File Assignments:

 Here is the input file:

 &cntrl
   nstlim=500000, nscm=1000,
   ntx=5, irest=1, ntpr=1000,
   tempi=300.0, temp0=300.0, ntt=3, gamma_ln=2.0,
   ntp=1, pres0=1.01325, taup=5.0,
   ntb=2, igb=0, cut=10.0,
   dt=0.002, ig=-1,
   ntc=2, ntf=2,
   iwrap=0,
   ntwr=1000, ntwx=50000, ntave=1000,
   ioutfm=1, ntwv=-1,
   ifsc = 0, icfe=1,
   clambda=0.04794,
   timask1=':1',
   timask2=':2', crgmask = ':2',
/

Note: ig = -1. Setting random seed to    30796 based on wallclock time in
      microseconds.

--------------------------------------------------------------------------------
   1.  RESOURCE   USE:
--------------------------------------------------------------------------------

 getting box info from netcdf restart file
 NATOM  =   20855 NTYPES =       6 NBONH =   20847 MBONA  =       6
 NTHETH =      12 MTHETA =       6 NPHIH =      24 MPHIA  =       2
 NHPARM =       0 NPARM  =       0 NNB   =   27832 NRES   =    6949
 NBONA  =       6 NTHETA =       6 NPHIA =       2 NUMBND =       5
 NUMANG =       4 NPTRA  =       3 NATYP =       6 NPHB   =       1
 IFBOX  =       2 NMXRS  =       7 IFCAP =       0 NEXTRA =       0
 NCOPY  =       0

     BOX TYPE: TRUNCATED OCTAHEDRON

--------------------------------------------------------------------------------
   2.  CONTROL  DATA  FOR  THE  RUN
--------------------------------------------------------------------------------

default_name

General flags:
     imin    =       0, nmropt  =       0

Nature and format of input:
     ntx     =       5, irest   =       1, ntrx    =       1

Nature and format of output:
     ntxo    =       2, ntpr    =    1000, ntrx    =       1, ntwr    =    1000
     iwrap   =       0, ntwx    =   50000, ntwv    =      -1, ntwe    =       0
     ioutfm  =       1, ntwprt  =       0, idecomp =       0, rbornstat=      0

Potential function:
     ntf     =       2, ntb     =       2, igb     =       0, nsnb    =      25
     ipol    =       0, gbsa    =       0, iesp    =       0
     dielc   =   1.00000, cut     =  10.00000, intdiel =   1.00000

Frozen or restrained atoms:
     ibelly  =       0, ntr     =       0

Molecular dynamics:
     nstlim  =    500000, nscm    =      1000, nrespa  =         1
     t       =   0.00000, dt      =   0.00200, vlimit  =  -1.00000

Langevin dynamics temperature regulation:
     ig      =   30796
     temp0   = 300.00000, tempi   = 300.00000, gamma_ln=   2.00000

Pressure regulation:
     ntp     =       1
     pres0   =   1.01325, comp    =  44.60000, taup    =   5.00000

SHAKE:
     ntc     =       2, jfastw  =       0
     tol     =   0.00001

Free energy options:
     icfe    =       1, ifsc    =       0, klambda =       1
     clambda =  0.0479, scalpha =  0.5000, scbeta  = 12.0000
     sceeorder =       2
     dynlmb =  0.0000 logdvdl =       0

Ewald parameters:
     verbose =       0, ew_type =       0, nbflag  =       1, use_pme =       1
     vdwmeth =       1, eedmeth =       1, netfrc  =       1
     Box X =   66.953   Box Y =   66.953   Box Z =   66.953
     Alpha =  109.471   Beta  =  109.471   Gamma =  109.471
     NFFT1 =   64       NFFT2 =   64       NFFT3 =   64
     Cutoff=   10.000   Tol   =0.100E-04
     Ewald Coefficient =  0.27511
     Interpolation order =    4
     TI Mask 1 :1; matches      7 atoms
     TI Mask 2 :2; matches      7 atoms
     TI region 1:   20848 atoms
     TI region 2:   20848 atoms
Removing charge of      -0.8188 from atom       8
Removing charge of      -0.8188 from atom       9
Removing charge of       0.8054 from atom      10
Removing charge of      -0.1021 from atom      11
Removing charge of      -0.0219 from atom      12
Removing charge of      -0.0219 from atom      13
Removing charge of      -0.0219 from atom      14
Total charge of  -0.99999900 removed from       7 atoms
     Checking for mismatched coordinates.

--------------------------------------------------------------------------------
   3.  ATOMIC COORDINATES AND VELOCITIES
--------------------------------------------------------------------------------

default_name
 begin time read from input coords =   200.000 ps

 Number of triangulated 3-point waters found:     6947

     Sum of charges for TI region  1 =  -0.99999900
     Skip neutralizing charges...

     Sum of charges for TI region  2 =   0.00000000
     Skip neutralizing charges...

--------------------------------------------------------------------------------
   4.  RESULTS
 NSTEP =     1000   TIME(PS) =     202.000  TEMP(K) =   303.46  PRESS =  -694.1
 Etot   =    -52687.6014  EKtot   =     12573.0847  EPtot      =    -65260.6861
 BOND   =         0.5054  ANGLE   =         6.7551  DIHED      =         5.3109
 1-4 NB =         0.0826  1-4 EEL =         9.7311  VDWAALS    =      9617.3519
 EELEC  =    -74900.4231  EHBOND  =         0.0000  RESTRAINT  =         0.0000
 EKCMT  =      6280.7598  VIRIAL  =      9697.7732  VOLUME     =    228017.9778
                                                    Density    =         0.9119
 DV/DL  =       160.5572
 ------------------------------------------------------------------------------

      A V E R A G E S   O V E R    1000 S T E P S

 NSTEP =     1000   TIME(PS) =     202.000  TEMP(K) =   300.96  PRESS =  -737.0
 Etot   =    -52705.3778  EKtot   =     12469.5925  EPtot      =    -65174.9703
 BOND   =         0.8323  ANGLE   =         5.8531  DIHED      =         5.2908
 1-4 NB =         0.3667  1-4 EEL =         9.9362  VDWAALS    =      9590.8688
 EELEC  =    -74788.1181  EHBOND  =         0.0000  RESTRAINT  =         0.0000
 EKCMT  =      6262.9471  VIRIAL  =      9915.4071  VOLUME     =    229481.6397
                                                    Density    =         0.9061
 DV/DL  =       162.0893
 ------------------------------------------------------------------------------

      R M S  F L U C T U A T I O N S

 NSTEP =     1000   TIME(PS) =     202.000  TEMP(K) =     2.26  PRESS =   117.1
 Etot   =        64.9960  EKtot   =        93.5708  EPtot      =        69.0226
 BOND   =         0.7694  ANGLE   =         1.4951  DIHED      =         0.0979
 1-4 NB =         0.2455  1-4 EEL =         0.2017  VDWAALS    =       116.0339
 EELEC  =       142.3531  EHBOND  =         0.0000  RESTRAINT  =         0.0000
 EKCMT  =        66.9420  VIRIAL  =       580.8963  VOLUME     =       870.5673
                                                    Density    =         0.0034
 DV/DL  =        10.1670
 ------------------------------------------------------------------------------

      A V E R A G E S   O V E R    1000 S T E P S

 NSTEP =     1000   TIME(PS) =     202.000  TEMP(K) =   300.96  PRESS =  -737.0
 Etot   =    -52705.3778  EKtot   =     12469.5925  EPtot      =    -65174.9703
 BOND   =         0.8323  ANGLE   =         5.8531  DIHED      =         5.2908
 1-4 NB =         0.3667  1-4 EEL =         9.9362  VDWAALS    =      9590.8688
 EELEC  =    -74788.1181  EHBOND  =         0.0000  RESTRAINT  =         0.0000
 EKCMT  =      6262.9471  VIRIAL  =      9915.4071  VOLUME     =    229481.6397
                                                    Density    =         0.9061
 DV/DL  =       162.0893
 ------------------------------------------------------------------------------

      R M S  F L U C T U A T I O N S

 NSTEP =     1000   TIME(PS) =     202.000  TEMP(K) =     2.26  PRESS =   117.1
 Etot   =        64.9960  EKtot   =        93.5708  EPtot      =        69.0226
 BOND   =         0.7694  ANGLE   =         1.4951  DIHED      =         0.0979
 1-4 NB =         0.2455  1-4 EEL =         0.2017  VDWAALS    =       116.0339
 EELEC  =       142.3531  EHBOND  =         0.0000  RESTRAINT  =         0.0000
 EKCMT  =        66.9420  VIRIAL  =       580.8963  VOLUME     =       870.5673
                                                    Density    =         0.0034
 DV/DL  =        10.1670
 ------------------------------------------------------------------------------

      DV/DL, AVERAGES OVER    1000 STEPS

 NSTEP =     1000   TIME(PS) =     202.000  TEMP(K) =     2.26  PRESS =     0.0
 Etot   =         0.0000  EKtot   =         0.0000  EPtot      =       162.0893
 BOND   =         0.0000  ANGLE   =         0.0000  DIHED      =         0.0000
 1-4 NB =         0.0000  1-4 EEL =       -10.4365  VDWAALS    =         0.0000
 EELEC  =       172.5258  EHBOND  =         0.0000  RESTRAINT  =         0.0000
 EKCMT  =         0.0000  VIRIAL  =         0.0000  VOLUME     =         0.0000
                                                    Density    =         0.0000
 DV/DL  =       162.0893
 ------------------------------------------------------------------------------

      A V E R A G E S   O V E R    1000 S T E P S

 NSTEP =     2000   TIME(PS) =     204.000  TEMP(K) =   299.93  PRESS =  -700.2
 Etot   =    -53009.3003  EKtot   =     12426.9631  EPtot      =    -65436.2634
 BOND   =         1.1971  ANGLE   =         5.7126  DIHED      =         5.2827
 1-4 NB =         0.3457  1-4 EEL =         9.9250  VDWAALS    =      9609.4459
 EELEC  =    -75068.1725  EHBOND  =         0.0000  RESTRAINT  =         0.0000
 EKCMT  =      6232.5908  VIRIAL  =      9658.4970  VOLUME     =    226559.9609
                                                    Density    =         0.9178
 DV/DL  =       157.4328
 ------------------------------------------------------------------------------

      R M S  F L U C T U A T I O N S

 NSTEP =     2000   TIME(PS) =     204.000  TEMP(K) =     2.44  PRESS =    97.4
 Etot   =       192.7189  EKtot   =       101.2648  EPtot      =       134.6871
 BOND   =         0.8815  ANGLE   =         1.3411  DIHED      =         0.0890
 1-4 NB =         0.1939  1-4 EEL =         0.1506  VDWAALS    =       102.0450
 EELEC  =       196.4316  EHBOND  =         0.0000  RESTRAINT  =         0.0000
 EKCMT  =        70.1780  VIRIAL  =       500.1368  VOLUME     =       803.9006
                                                    Density    =         0.0033
 DV/DL  =         7.9336
 ------------------------------------------------------------------------------

      A V E R A G E S   O V E R    1000 S T E P S

 NSTEP =     2000   TIME(PS) =     204.000  TEMP(K) =   299.93  PRESS =  -700.2
 Etot   =    -53009.3003  EKtot   =     12426.9631  EPtot      =    -65436.2634
 BOND   =         1.1971  ANGLE   =         5.7126  DIHED      =         5.2827
 1-4 NB =         0.3457  1-4 EEL =         9.9250  VDWAALS    =      9609.4459
 EELEC  =    -75068.1725  EHBOND  =         0.0000  RESTRAINT  =         0.0000
 EKCMT  =      6232.5908  VIRIAL  =      9658.4970  VOLUME     =    226559.9609
                                                    Density    =         0.9178
 DV/DL  =       157.4328
 ------------------------------------------------------------------------------

      R M S  F L U C T U A T I O N S

 NSTEP =     2000   TIME(PS) =     204.000  TEMP(K) =     2.44  PRESS =    97.4
 Etot   =       192.7189  EKtot   =       101.2648  EPtot      =       134.6871
 BOND   =         0.8815  ANGLE   =         1.3411  DIHED      =         0.0890
 1-4 NB =         0.1939  1-4 EEL =         0.1506  VDWAALS    =       102.0450
 EELEC  =       196.4316  EHBOND  =         0.0000  RESTRAINT  =         0.0000
 EKCMT  =        70.1780  VIRIAL  =       500.1368  VOLUME     =       803.9006
                                                    Density    =         0.0033
 DV/DL  =         7.9336
 ------------------------------------------------------------------------------

      DV/DL, AVERAGES OVER    1000 STEPS

 NSTEP =     2000   TIME(PS) =     204.000  TEMP(K) =     2.44  PRESS =     0.0
 Etot   =         0.0000  EKtot   =         0.0000  EPtot      =       157.4328
 BOND   =         0.0000  ANGLE   =         0.0000  DIHED      =         0.0000
 1-4 NB =         0.0000  1-4 EEL =       -10.4247  VDWAALS    =         0.0000
 EELEC  =       167.8576  EHBOND  =         0.0000  RESTRAINT  =         0.0000
 EKCMT  =         0.0000  VIRIAL  =         0.0000  VOLUME     =         0.0000
                                                    Density    =         0.0000
 DV/DL  =       157.4328
 ------------------------------------------------------------------------------

      A V E R A G E S   O V E R    1000 S T E P S

 NSTEP =   500000   TIME(PS) =    1200.000  TEMP(K) =   299.53  PRESS =   -49.5
 Etot   =    -53989.1535  EKtot   =     12410.5997  EPtot      =    -66399.7531
 BOND   =         1.0317  ANGLE   =         5.5303  DIHED      =         5.3062
 1-4 NB =         0.3392  1-4 EEL =         9.9385  VDWAALS    =      9887.8904
 EELEC  =    -76309.7895  EHBOND  =         0.0000  RESTRAINT  =         0.0000
 EKCMT  =      6216.6781  VIRIAL  =      6442.5991  VOLUME     =    211265.5229
                                                    Density    =         0.9842
 DV/DL  =       160.6421
 ------------------------------------------------------------------------------

      R M S  F L U C T U A T I O N S

 NSTEP =   500000   TIME(PS) =    1200.000  TEMP(K) =     2.06  PRESS =   132.0
 Etot   =        78.7080  EKtot   =        85.1489  EPtot      =        80.0850
 BOND   =         0.7282  ANGLE   =         1.2996  DIHED      =         0.0951
 1-4 NB =         0.2050  1-4 EEL =         0.1611  VDWAALS    =       131.0966
 EELEC  =       170.0602  EHBOND  =         0.0000  RESTRAINT  =         0.0000
 EKCMT  =        74.5631  VIRIAL  =       604.7649  VOLUME     =        41.9852
                                                    Density    =         0.0002
 DV/DL  =         9.9961
 ------------------------------------------------------------------------------

      A V E R A G E S   O V E R    1000 S T E P S

 NSTEP =   500000   TIME(PS) =    1200.000  TEMP(K) =   299.53  PRESS =   -49.5
 Etot   =    -53989.1535  EKtot   =     12410.5997  EPtot      =    -66399.7531
 BOND   =         1.0317  ANGLE   =         5.5303  DIHED      =         5.3062
 1-4 NB =         0.3392  1-4 EEL =         9.9385  VDWAALS    =      9887.8904
 EELEC  =    -76309.7895  EHBOND  =         0.0000  RESTRAINT  =         0.0000
 EKCMT  =      6216.6781  VIRIAL  =      6442.5991  VOLUME     =    211265.5229
                                                    Density    =         0.9842
 DV/DL  =       160.6421
 ------------------------------------------------------------------------------

      R M S  F L U C T U A T I O N S

 NSTEP =   500000   TIME(PS) =    1200.000  TEMP(K) =     2.06  PRESS =   132.0
 Etot   =        78.7080  EKtot   =        85.1489  EPtot      =        80.0850
 BOND   =         0.7282  ANGLE   =         1.2996  DIHED      =         0.0951
 1-4 NB =         0.2050  1-4 EEL =         0.1611  VDWAALS    =       131.0966
 EELEC  =       170.0602  EHBOND  =         0.0000  RESTRAINT  =         0.0000
 EKCMT  =        74.5631  VIRIAL  =       604.7649  VOLUME     =        41.9852
                                                    Density    =         0.0002
 DV/DL  =         9.9961
 ------------------------------------------------------------------------------

      DV/DL, AVERAGES OVER    1000 STEPS

 NSTEP =   500000   TIME(PS) =    1200.000  TEMP(K) =     2.06  PRESS =     0.0
 Etot   =         0.0000  EKtot   =         0.0000  EPtot      =       160.6421
 BOND   =         0.0000  ANGLE   =         0.0000  DIHED      =         0.0000
 1-4 NB =         0.0000  1-4 EEL =       -10.4389  VDWAALS    =         0.0000
 EELEC  =       171.0810  EHBOND  =         0.0000  RESTRAINT  =         0.0000
 EKCMT  =         0.0000  VIRIAL  =         0.0000  VOLUME     =         0.0000
                                                    Density    =         0.0000
 DV/DL  =       160.6421
 ------------------------------------------------------------------------------

      A V E R A G E S   O V E R  500000 S T E P S

 NSTEP =   500000   TIME(PS) =    1200.000  TEMP(K) =   300.00  PRESS =    -9.0
 Etot   =    -53911.5910  EKtot   =     12429.7673  EPtot      =    -66341.3584
 BOND   =         0.9407  ANGLE   =         5.4842  DIHED      =         5.2874
 1-4 NB =         0.3454  1-4 EEL =         9.9296  VDWAALS    =      9916.2215
 EELEC  =    -76279.5672  EHBOND  =         0.0000  RESTRAINT  =         0.0000
 EKCMT  =      6233.8248  VIRIAL  =      6277.1744  VOLUME     =    211627.8346
                                                    Density    =         0.9826
 DV/DL  =       162.7396
 ------------------------------------------------------------------------------

      R M S  F L U C T U A T I O N S

 NSTEP =   500000   TIME(PS) =    1200.000  TEMP(K) =     2.08  PRESS =   145.2
 Etot   =       174.5831  EKtot   =        86.2282  EPtot      =       149.3579
 BOND   =         0.7690  ANGLE   =         1.3663  DIHED      =         0.0983
 1-4 NB =         0.2031  1-4 EEL =         0.1564  VDWAALS    =       126.7084
 EELEC  =       225.9570  EHBOND  =         0.0000  RESTRAINT  =         0.0000
 EKCMT  =        61.1105  VIRIAL  =       670.8986  VOLUME     =      1423.4716
                                                    Density    =         0.0062
 DV/DL  =        10.1291
 ------------------------------------------------------------------------------

      A V E R A G E S   O V E R  500000 S T E P S

 NSTEP =   500000   TIME(PS) =    1200.000  TEMP(K) =   300.00  PRESS =    -9.0
 Etot   =    -53911.5910  EKtot   =     12429.7673  EPtot      =    -66341.3584
 BOND   =         0.9407  ANGLE   =         5.4842  DIHED      =         5.2874
 1-4 NB =         0.3454  1-4 EEL =         9.9296  VDWAALS    =      9916.2215
 EELEC  =    -76279.5672  EHBOND  =         0.0000  RESTRAINT  =         0.0000
 EKCMT  =      6233.8248  VIRIAL  =      6277.1744  VOLUME     =    211627.8346
                                                    Density    =         0.9826
 DV/DL  =       162.7396
 ------------------------------------------------------------------------------

      R M S  F L U C T U A T I O N S

 NSTEP =   500000   TIME(PS) =    1200.000  TEMP(K) =     2.08  PRESS =   145.2
 Etot   =       174.5831  EKtot   =        86.2282  EPtot      =       149.3579
 BOND   =         0.7690  ANGLE   =         1.3663  DIHED      =         0.0983
 1-4 NB =         0.2031  1-4 EEL =         0.1564  VDWAALS    =       126.7084
 EELEC  =       225.9570  EHBOND  =         0.0000  RESTRAINT  =         0.0000
 EKCMT  =        61.1105  VIRIAL  =       670.8986  VOLUME     =      1423.4716
                                                    Density    =         0.0062
 DV/DL  =        10.1291
 ------------------------------------------------------------------------------

      DV/DL, AVERAGES OVER  500000 STEPS

 NSTEP =   500000   TIME(PS) =    1200.000  TEMP(K) =     2.08  PRESS =     0.0
 Etot   =         0.0000  EKtot   =         0.0000  EPtot      =       162.7396
 BOND   =         0.0000  ANGLE   =         0.0000  DIHED      =         0.0000
 1-4 NB =         0.0000  1-4 EEL =       -10.4296  VDWAALS    =         0.0000
 EELEC  =       173.1693  EHBOND  =         0.0000  RESTRAINT  =         0.0000
 EKCMT  =         0.0000  VIRIAL  =         0.0000  VOLUME     =         0.0000
                                                    Density    =         0.0000
 DV/DL  =       162.7396
 ------------------------------------------------------------------------------
