-------------------------------------------------------
          Amber 20 PMEMD                              2020
          -------------------------------------------------------

  [-O]verwriting output

File Assignments:

 Here is the input file:

 &cntrl
   nstlim=1000000, nscm=1000,
   ntx=1, irest=0, ntpr=1000,
   tempi=300.0, temp0=300.0, ntt=3, gamma_ln=2.0,
   ntb=1, igb=0, cut=10.0,
   dt=0.001, ig=-1,
   ntc=1, ntf=1,
   iwrap=0,
   ntwr=1000, ntwx=50000, ntave=1000,
   ioutfm=1, ntwv=-1,
   ifsc = 0, icfe=1,
   clambda=0.79366,
   timask1=':1',
   timask2=':2', crgmask = ':2',
/

Note: ig = -1. Setting random seed to   925990 based on wallclock time in
      microseconds.

--------------------------------------------------------------------------------
   1.  RESOURCE   USE:
--------------------------------------------------------------------------------

 getting box info from netcdf restart file
 NATOM  =      14 NTYPES =       6 NBONH =       6 MBONA  =       6
 NTHETH =      12 MTHETA =       6 NPHIH =      24 MPHIA  =       2
 NHPARM =       0 NPARM  =       0 NNB   =      44 NRES   =       2
 NBONA  =       6 NTHETA =       6 NPHIA =       2 NUMBND =       3
 NUMANG =       4 NPTRA  =       3 NATYP =       6 NPHB   =       1
 IFBOX  =       2 NMXRS  =       7 IFCAP =       0 NEXTRA =       0
 NCOPY  =       0

     BOX TYPE: TRUNCATED OCTAHEDRON

--------------------------------------------------------------------------------
   2.  CONTROL  DATA  FOR  THE  RUN
--------------------------------------------------------------------------------

default_name

General flags:
     imin    =       0, nmropt  =       0

Nature and format of input:
     ntx     =       1, irest   =       0, ntrx    =       1

Nature and format of output:
     ntxo    =       2, ntpr    =    1000, ntrx    =       1, ntwr    =    1000
     iwrap   =       0, ntwx    =   50000, ntwv    =      -1, ntwe    =       0
     ioutfm  =       1, ntwprt  =       0, idecomp =       0, rbornstat=      0

Potential function:
     ntf     =       1, ntb     =       1, igb     =       0, nsnb    =      25
     ipol    =       0, gbsa    =       0, iesp    =       0
     dielc   =   1.00000, cut     =  10.00000, intdiel =   1.00000

Frozen or restrained atoms:
     ibelly  =       0, ntr     =       0

Molecular dynamics:
     nstlim  =   1000000, nscm    =      1000, nrespa  =         1
     t       =   0.00000, dt      =   0.00100, vlimit  =  -1.00000

Langevin dynamics temperature regulation:
     ig      =  925990
     temp0   = 300.00000, tempi   = 300.00000, gamma_ln=   2.00000

Free energy options:
     icfe    =       1, ifsc    =       0, klambda =       1
     clambda =  0.7937, scalpha =  0.5000, scbeta  = 12.0000
     sceeorder =       2
     dynlmb =  0.0000 logdvdl =       0

Ewald parameters:
     verbose =       0, ew_type =       0, nbflag  =       1, use_pme =       1
     vdwmeth =       1, eedmeth =       1, netfrc  =       1
     Box X =   66.953   Box Y =   66.953   Box Z =   66.953
     Alpha =  109.471   Beta  =  109.471   Gamma =  109.471
     NFFT1 =   64       NFFT2 =   64       NFFT3 =   64
     Cutoff=   10.000   Tol   =0.100E-04
     Ewald Coefficient =  0.27511
     Interpolation order =    4
     TI Mask 1 :1; matches      7 atoms
     TI Mask 2 :2; matches      7 atoms
     TI region 1:       7 atoms
     TI region 2:       7 atoms
Removing charge of      -0.8188 from atom       8
Removing charge of      -0.8188 from atom       9
Removing charge of       0.8054 from atom      10
Removing charge of      -0.1021 from atom      11
Removing charge of      -0.0219 from atom      12
Removing charge of      -0.0219 from atom      13
Removing charge of      -0.0219 from atom      14
Total charge of  -0.99999900 removed from       7 atoms
     Checking for mismatched coordinates.

--------------------------------------------------------------------------------
   3.  ATOMIC COORDINATES AND VELOCITIES
--------------------------------------------------------------------------------

default_name
 begin time read from input coords =     0.000 ps

 Number of triangulated 3-point waters found:        0

     Sum of charges for TI region  1 =  -0.99999900
     Skip neutralizing charges...

     Sum of charges for TI region  2 =   0.00000000
     Skip neutralizing charges...

--------------------------------------------------------------------------------
   4.  RESULTS
 NSTEP =        0   TIME(PS) =       0.000  TEMP(K) =   194.51  PRESS =     0.0
 Etot   =        12.9364  EKtot   =         4.0586  EPtot      =         8.8778
 BOND   =         0.0156  ANGLE   =         2.7901  DIHED      =         5.2195
 1-4 NB =         0.3073  1-4 EEL =         2.1565  VDWAALS    =        -0.0001
 EELEC  =        -1.6111  EHBOND  =         0.0000  RESTRAINT  =         0.0000
 DV/DL  =        -2.6431
 ------------------------------------------------------------------------------

      A V E R A G E S   O V E R    1000 S T E P S

 NSTEP =     1000   TIME(PS) =       1.000  TEMP(K) =   248.00  PRESS =     0.0
 Etot   =        16.9272  EKtot   =         5.1746  EPtot      =        11.7525
 BOND   =         1.3663  ANGLE   =         4.1929  DIHED      =         5.2763
 1-4 NB =         0.3698  1-4 EEL =         2.1583  VDWAALS    =        -0.0001
 EELEC  =        -1.6109  EHBOND  =         0.0000  RESTRAINT  =         0.0000
 DV/DL  =        -2.6522
 ------------------------------------------------------------------------------

      R M S  F L U C T U A T I O N S

 NSTEP =     1000   TIME(PS) =       1.000  TEMP(K) =    70.12  PRESS =     0.0
 Etot   =         1.6863  EKtot   =         1.4631  EPtot      =         1.1390
 BOND   =         0.9469  ANGLE   =         0.6152  DIHED      =         0.0735
 1-4 NB =         0.1901  1-4 EEL =         0.0353  VDWAALS    =         0.0000
 EELEC  =         0.0003  EHBOND  =         0.0000  RESTRAINT  =         0.0000
 DV/DL  =         0.1833
 ------------------------------------------------------------------------------

      A V E R A G E S   O V E R    1000 S T E P S

 NSTEP =     1000   TIME(PS) =       1.000  TEMP(K) =   247.88  PRESS =     0.0
 Etot   =        16.9247  EKtot   =         5.1721  EPtot      =        11.7525
 BOND   =         1.3663  ANGLE   =         4.1929  DIHED      =         5.2763
 1-4 NB =         0.3698  1-4 EEL =         2.1583  VDWAALS    =        -0.0001
 EELEC  =        -1.6109  EHBOND  =         0.0000  RESTRAINT  =         0.0000
 DV/DL  =        -2.6522
 ------------------------------------------------------------------------------

      R M S  F L U C T U A T I O N S

 NSTEP =     1000   TIME(PS) =       1.000  TEMP(K) =    70.18  PRESS =     0.0
 Etot   =         1.6897  EKtot   =         1.4644  EPtot      =         1.1390
 BOND   =         0.9469  ANGLE   =         0.6152  DIHED      =         0.0735
 1-4 NB =         0.1901  1-4 EEL =         0.0353  VDWAALS    =         0.0000
 EELEC  =         0.0003  EHBOND  =         0.0000  RESTRAINT  =         0.0000
 DV/DL  =         0.1833
 ------------------------------------------------------------------------------

      DV/DL, AVERAGES OVER    1000 STEPS

 NSTEP =     1000   TIME(PS) =       1.000  TEMP(K) =    70.18  PRESS =     0.0
 Etot   =         0.0000  EKtot   =         0.0000  EPtot      =        -2.6522
 BOND   =        -0.0006  ANGLE   =         0.0011  DIHED      =         0.0000
 1-4 NB =        -0.0000  1-4 EEL =       -10.4598  VDWAALS    =         0.0000
 EELEC  =         7.8070  EHBOND  =         0.0000  RESTRAINT  =         0.0000
 DV/DL  =        -2.6522
 ------------------------------------------------------------------------------

      A V E R A G E S   O V E R    1000 S T E P S

 NSTEP =     2000   TIME(PS) =       2.000  TEMP(K) =   354.27  PRESS =     0.0
 Etot   =        22.3211  EKtot   =         7.3920  EPtot      =        14.9291
 BOND   =         3.6958  ANGLE   =         5.0330  DIHED      =         5.2621
 1-4 NB =         0.3902  1-4 EEL =         2.1593  VDWAALS    =        -0.0001
 EELEC  =        -1.6112  EHBOND  =         0.0000  RESTRAINT  =         0.0000
 DV/DL  =        -2.6559
 ------------------------------------------------------------------------------

      R M S  F L U C T U A T I O N S

 NSTEP =     2000   TIME(PS) =       2.000  TEMP(K) =    98.83  PRESS =     0.0
 Etot   =         1.8629  EKtot   =         2.0622  EPtot      =         2.0489
 BOND   =         1.8642  ANGLE   =         1.0735  DIHED      =         0.0651
 1-4 NB =         0.2382  1-4 EEL =         0.0397  VDWAALS    =         0.0000
 EELEC  =         0.0007  EHBOND  =         0.0000  RESTRAINT  =         0.0000
 DV/DL  =         0.2167
 ------------------------------------------------------------------------------

      A V E R A G E S   O V E R    1000 S T E P S

 NSTEP =     2000   TIME(PS) =       2.000  TEMP(K) =   354.21  PRESS =     0.0
 Etot   =        22.3200  EKtot   =         7.3909  EPtot      =        14.9291
 BOND   =         3.6958  ANGLE   =         5.0330  DIHED      =         5.2621
 1-4 NB =         0.3902  1-4 EEL =         2.1593  VDWAALS    =        -0.0001
 EELEC  =        -1.6112  EHBOND  =         0.0000  RESTRAINT  =         0.0000
 DV/DL  =        -2.6559
 ------------------------------------------------------------------------------

      R M S  F L U C T U A T I O N S

 NSTEP =     2000   TIME(PS) =       2.000  TEMP(K) =    98.76  PRESS =     0.0
 Etot   =         1.8673  EKtot   =         2.0607  EPtot      =         2.0489
 BOND   =         1.8642  ANGLE   =         1.0735  DIHED      =         0.0651
 1-4 NB =         0.2382  1-4 EEL =         0.0397  VDWAALS    =         0.0000
 EELEC  =         0.0007  EHBOND  =         0.0000  RESTRAINT  =         0.0000
 DV/DL  =         0.2167
 ------------------------------------------------------------------------------

      DV/DL, AVERAGES OVER    1000 STEPS

 NSTEP =     2000   TIME(PS) =       2.000  TEMP(K) =    98.76  PRESS =     0.0
 Etot   =         0.0000  EKtot   =         0.0000  EPtot      =        -2.6559
 BOND   =        -0.0009  ANGLE   =         0.0015  DIHED      =        -0.0000
 1-4 NB =         0.0001  1-4 EEL =       -10.4647  VDWAALS    =         0.0000
 EELEC  =         7.8082  EHBOND  =         0.0000  RESTRAINT  =         0.0000
 DV/DL  =        -2.6559
 ------------------------------------------------------------------------------

      A V E R A G E S   O V E R    1000 S T E P S

 NSTEP =  1000000   TIME(PS) =    1000.000  TEMP(K) =   300.22  PRESS =     0.0
 Etot   =        19.7329  EKtot   =         6.2642  EPtot      =        13.4687
 BOND   =         2.1051  ANGLE   =         5.1927  DIHED      =         5.2342
 1-4 NB =         0.3920  1-4 EEL =         2.1557  VDWAALS    =        -0.0001
 EELEC  =        -1.6109  EHBOND  =         0.0000  RESTRAINT  =         0.0000
 DV/DL  =        -2.6366
 ------------------------------------------------------------------------------

      R M S  F L U C T U A T I O N S

 NSTEP =  1000000   TIME(PS) =    1000.000  TEMP(K) =    73.62  PRESS =     0.0
 Etot   =         1.3286  EKtot   =         1.5362  EPtot      =         1.3732
 BOND   =         0.9733  ANGLE   =         1.0481  DIHED      =         0.0257
 1-4 NB =         0.2326  1-4 EEL =         0.0355  VDWAALS    =         0.0000
 EELEC  =         0.0004  EHBOND  =         0.0000  RESTRAINT  =         0.0000
 DV/DL  =         0.1879
 ------------------------------------------------------------------------------

      A V E R A G E S   O V E R    1000 S T E P S

 NSTEP =  1000000   TIME(PS) =    1000.000  TEMP(K) =   300.43  PRESS =     0.0
 Etot   =        19.7374  EKtot   =         6.2687  EPtot      =        13.4687
 BOND   =         2.1051  ANGLE   =         5.1927  DIHED      =         5.2342
 1-4 NB =         0.3920  1-4 EEL =         2.1557  VDWAALS    =        -0.0001
 EELEC  =        -1.6109  EHBOND  =         0.0000  RESTRAINT  =         0.0000
 DV/DL  =        -2.6366
 ------------------------------------------------------------------------------

      R M S  F L U C T U A T I O N S

 NSTEP =  1000000   TIME(PS) =    1000.000  TEMP(K) =    73.94  PRESS =     0.0
 Etot   =         1.3386  EKtot   =         1.5428  EPtot      =         1.3732
 BOND   =         0.9733  ANGLE   =         1.0481  DIHED      =         0.0257
 1-4 NB =         0.2326  1-4 EEL =         0.0355  VDWAALS    =         0.0000
 EELEC  =         0.0004  EHBOND  =         0.0000  RESTRAINT  =         0.0000
 DV/DL  =         0.1879
 ------------------------------------------------------------------------------

      DV/DL, AVERAGES OVER    1000 STEPS

 NSTEP =  1000000   TIME(PS) =    1000.000  TEMP(K) =    73.94  PRESS =     0.0
 Etot   =         0.0000  EKtot   =         0.0000  EPtot      =        -2.6366
 BOND   =         0.0020  ANGLE   =         0.0015  DIHED      =         0.0000
 1-4 NB =        -0.0000  1-4 EEL =       -10.4471  VDWAALS    =         0.0000
 EELEC  =         7.8070  EHBOND  =         0.0000  RESTRAINT  =         0.0000
 DV/DL  =        -2.6366
 ------------------------------------------------------------------------------

      A V E R A G E S   O V E R 1000000 S T E P S

 NSTEP =  1000000   TIME(PS) =    1000.000  TEMP(K) =   339.27  PRESS =     0.0
 Etot   =        21.0875  EKtot   =         7.0789  EPtot      =        14.0085
 BOND   =         2.5270  ANGLE   =         5.2594  DIHED      =         5.2818
 1-4 NB =         0.3924  1-4 EEL =         2.1590  VDWAALS    =        -0.0001
 EELEC  =        -1.6110  EHBOND  =         0.0000  RESTRAINT  =         0.0000
 DV/DL  =        -2.6558
 ------------------------------------------------------------------------------

      R M S  F L U C T U A T I O N S

 NSTEP =  1000000   TIME(PS) =    1000.000  TEMP(K) =   105.76  PRESS =     0.0
 Etot   =         2.9105  EKtot   =         2.2068  EPtot      =         1.9575
 BOND   =         1.4834  ANGLE   =         1.2604  DIHED      =         0.0927
 1-4 NB =         0.2248  1-4 EEL =         0.0356  VDWAALS    =         0.0000
 EELEC  =         0.0006  EHBOND  =         0.0000  RESTRAINT  =         0.0000
 DV/DL  =         0.1909
 ------------------------------------------------------------------------------

      A V E R A G E S   O V E R 1000000 S T E P S

 NSTEP =  1000000   TIME(PS) =    1000.000  TEMP(K) =   339.26  PRESS =     0.0
 Etot   =        21.0873  EKtot   =         7.0788  EPtot      =        14.0085
 BOND   =         2.5270  ANGLE   =         5.2594  DIHED      =         5.2818
 1-4 NB =         0.3924  1-4 EEL =         2.1590  VDWAALS    =        -0.0001
 EELEC  =        -1.6110  EHBOND  =         0.0000  RESTRAINT  =         0.0000
 DV/DL  =        -2.6558
 ------------------------------------------------------------------------------

      R M S  F L U C T U A T I O N S

 NSTEP =  1000000   TIME(PS) =    1000.000  TEMP(K) =   105.76  PRESS =     0.0
 Etot   =         2.9107  EKtot   =         2.2068  EPtot      =         1.9575
 BOND   =         1.4834  ANGLE   =         1.2604  DIHED      =         0.0927
 1-4 NB =         0.2248  1-4 EEL =         0.0356  VDWAALS    =         0.0000
 EELEC  =         0.0006  EHBOND  =         0.0000  RESTRAINT  =         0.0000
 DV/DL  =         0.1909
 ------------------------------------------------------------------------------

      DV/DL, AVERAGES OVER 1000000 STEPS

 NSTEP =  1000000   TIME(PS) =    1000.000  TEMP(K) =   105.76  PRESS =     0.0
 Etot   =         0.0000  EKtot   =         0.0000  EPtot      =        -2.6558
 BOND   =         0.0002  ANGLE   =         0.0000  DIHED      =         0.0000
 1-4 NB =        -0.0000  1-4 EEL =       -10.4635  VDWAALS    =         0.0000
 EELEC  =         7.8076  EHBOND  =         0.0000  RESTRAINT  =         0.0000
 DV/DL  =        -2.6558
 ------------------------------------------------------------------------------
