-------------------------------------------------------
          Amber 20 PMEMD                              2020
          -------------------------------------------------------

  [-O]verwriting output

File Assignments:

 Here is the input file:

 &cntrl
   nstlim=500000, nscm=1000,
   ntx=5, irest=1, ntpr=1000,
   tempi=300.0, temp0=300.0, ntt=3, gamma_ln=2.0,
   ntp=1, pres0=1.01325, taup=5.0,
   ntb=2, igb=0, cut=10.0,
   dt=0.002, ig=-1,
   ntc=2, ntf=2,
   iwrap=0,
   ntwr=1000, ntwx=50000, ntave=1000,
   ioutfm=1, ntwv=-1,
   ifsc = 0, icfe=1,
   clambda=0.20634,
   timask1=':1',
   timask2=':2', crgmask = ':2',
/

Note: ig = -1. Setting random seed to   404831 based on wallclock time in
      microseconds.

--------------------------------------------------------------------------------
   1.  RESOURCE   USE:
--------------------------------------------------------------------------------

 getting box info from netcdf restart file
 NATOM  =   20855 NTYPES =       6 NBONH =   20847 MBONA  =       6
 NTHETH =      12 MTHETA =       6 NPHIH =      24 MPHIA  =       2
 NHPARM =       0 NPARM  =       0 NNB   =   27832 NRES   =    6949
 NBONA  =       6 NTHETA =       6 NPHIA =       2 NUMBND =       5
 NUMANG =       4 NPTRA  =       3 NATYP =       6 NPHB   =       1
 IFBOX  =       2 NMXRS  =       7 IFCAP =       0 NEXTRA =       0
 NCOPY  =       0

     BOX TYPE: TRUNCATED OCTAHEDRON

--------------------------------------------------------------------------------
   2.  CONTROL  DATA  FOR  THE  RUN
--------------------------------------------------------------------------------

default_name

General flags:
     imin    =       0, nmropt  =       0

Nature and format of input:
     ntx     =       5, irest   =       1, ntrx    =       1

Nature and format of output:
     ntxo    =       2, ntpr    =    1000, ntrx    =       1, ntwr    =    1000
     iwrap   =       0, ntwx    =   50000, ntwv    =      -1, ntwe    =       0
     ioutfm  =       1, ntwprt  =       0, idecomp =       0, rbornstat=      0

Potential function:
     ntf     =       2, ntb     =       2, igb     =       0, nsnb    =      25
     ipol    =       0, gbsa    =       0, iesp    =       0
     dielc   =   1.00000, cut     =  10.00000, intdiel =   1.00000

Frozen or restrained atoms:
     ibelly  =       0, ntr     =       0

Molecular dynamics:
     nstlim  =    500000, nscm    =      1000, nrespa  =         1
     t       =   0.00000, dt      =   0.00200, vlimit  =  -1.00000

Langevin dynamics temperature regulation:
     ig      =  404831
     temp0   = 300.00000, tempi   = 300.00000, gamma_ln=   2.00000

Pressure regulation:
     ntp     =       1
     pres0   =   1.01325, comp    =  44.60000, taup    =   5.00000

SHAKE:
     ntc     =       2, jfastw  =       0
     tol     =   0.00001

Free energy options:
     icfe    =       1, ifsc    =       0, klambda =       1
     clambda =  0.2063, scalpha =  0.5000, scbeta  = 12.0000
     sceeorder =       2
     dynlmb =  0.0000 logdvdl =       0

Ewald parameters:
     verbose =       0, ew_type =       0, nbflag  =       1, use_pme =       1
     vdwmeth =       1, eedmeth =       1, netfrc  =       1
     Box X =   66.953   Box Y =   66.953   Box Z =   66.953
     Alpha =  109.471   Beta  =  109.471   Gamma =  109.471
     NFFT1 =   64       NFFT2 =   64       NFFT3 =   64
     Cutoff=   10.000   Tol   =0.100E-04
     Ewald Coefficient =  0.27511
     Interpolation order =    4
     TI Mask 1 :1; matches      7 atoms
     TI Mask 2 :2; matches      7 atoms
     TI region 1:   20848 atoms
     TI region 2:   20848 atoms
Removing charge of      -0.8188 from atom       8
Removing charge of      -0.8188 from atom       9
Removing charge of       0.8054 from atom      10
Removing charge of      -0.1021 from atom      11
Removing charge of      -0.0219 from atom      12
Removing charge of      -0.0219 from atom      13
Removing charge of      -0.0219 from atom      14
Total charge of  -0.99999900 removed from       7 atoms
     Checking for mismatched coordinates.

--------------------------------------------------------------------------------
   3.  ATOMIC COORDINATES AND VELOCITIES
--------------------------------------------------------------------------------

default_name
 begin time read from input coords =   200.000 ps

 Number of triangulated 3-point waters found:     6947

     Sum of charges for TI region  1 =  -0.99999900
     Skip neutralizing charges...

     Sum of charges for TI region  2 =   0.00000000
     Skip neutralizing charges...

--------------------------------------------------------------------------------
   4.  RESULTS
 NSTEP =     1000   TIME(PS) =     202.000  TEMP(K) =   301.59  PRESS =  -489.6
 Etot   =    -52926.6695  EKtot   =     12495.7751  EPtot      =    -65422.4446
 BOND   =         0.6792  ANGLE   =         4.1499  DIHED      =         5.2082
 1-4 NB =         0.4816  1-4 EEL =         8.3775  VDWAALS    =      9711.8465
 EELEC  =    -75153.1874  EHBOND  =         0.0000  RESTRAINT  =         0.0000
 EKCMT  =      6333.8764  VIRIAL  =      8752.7304  VOLUME     =    228813.3914
                                                    Density    =         0.9087
 DV/DL  =       118.0299
 ------------------------------------------------------------------------------

      A V E R A G E S   O V E R    1000 S T E P S

 NSTEP =     1000   TIME(PS) =     202.000  TEMP(K) =   300.56  PRESS =  -541.6
 Etot   =    -52960.9514  EKtot   =     12453.2761  EPtot      =    -65414.2274
 BOND   =         1.0469  ANGLE   =         4.7055  DIHED      =         5.2867
 1-4 NB =         0.3570  1-4 EEL =         8.2929  VDWAALS    =      9693.0592
 EELEC  =    -75126.9757  EHBOND  =         0.0000  RESTRAINT  =         0.0000
 EKCMT  =      6239.7823  VIRIAL  =      8928.5686  VOLUME     =    229884.7304
                                                    Density    =         0.9045
 DV/DL  =       137.1717
 ------------------------------------------------------------------------------

      R M S  F L U C T U A T I O N S

 NSTEP =     1000   TIME(PS) =     202.000  TEMP(K) =     1.85  PRESS =   108.7
 Etot   =        79.0268  EKtot   =        76.4768  EPtot      =        83.0529
 BOND   =         0.7466  ANGLE   =         0.9683  DIHED      =         0.0890
 1-4 NB =         0.1786  1-4 EEL =         0.1188  VDWAALS    =       107.7415
 EELEC  =       152.5035  EHBOND  =         0.0000  RESTRAINT  =         0.0000
 EKCMT  =        64.2597  VIRIAL  =       529.8215  VOLUME     =       642.0955
                                                    Density    =         0.0025
 DV/DL  =         7.9547
 ------------------------------------------------------------------------------

      A V E R A G E S   O V E R    1000 S T E P S

 NSTEP =     1000   TIME(PS) =     202.000  TEMP(K) =   300.56  PRESS =  -541.6
 Etot   =    -52960.9514  EKtot   =     12453.2761  EPtot      =    -65414.2274
 BOND   =         1.0469  ANGLE   =         4.7055  DIHED      =         5.2867
 1-4 NB =         0.3570  1-4 EEL =         8.2929  VDWAALS    =      9693.0592
 EELEC  =    -75126.9757  EHBOND  =         0.0000  RESTRAINT  =         0.0000
 EKCMT  =      6239.7823  VIRIAL  =      8928.5686  VOLUME     =    229884.7304
                                                    Density    =         0.9045
 DV/DL  =       137.1717
 ------------------------------------------------------------------------------

      R M S  F L U C T U A T I O N S

 NSTEP =     1000   TIME(PS) =     202.000  TEMP(K) =     1.85  PRESS =   108.7
 Etot   =        79.0268  EKtot   =        76.4768  EPtot      =        83.0529
 BOND   =         0.7466  ANGLE   =         0.9683  DIHED      =         0.0890
 1-4 NB =         0.1786  1-4 EEL =         0.1188  VDWAALS    =       107.7415
 EELEC  =       152.5035  EHBOND  =         0.0000  RESTRAINT  =         0.0000
 EKCMT  =        64.2597  VIRIAL  =       529.8215  VOLUME     =       642.0955
                                                    Density    =         0.0025
 DV/DL  =         7.9547
 ------------------------------------------------------------------------------

      DV/DL, AVERAGES OVER    1000 STEPS

 NSTEP =     1000   TIME(PS) =     202.000  TEMP(K) =     1.85  PRESS =     0.0
 Etot   =         0.0000  EKtot   =         0.0000  EPtot      =       137.1717
 BOND   =         0.0000  ANGLE   =         0.0000  DIHED      =         0.0000
 1-4 NB =         0.0000  1-4 EEL =       -10.4489  VDWAALS    =         0.0000
 EELEC  =       147.6206  EHBOND  =         0.0000  RESTRAINT  =         0.0000
 EKCMT  =         0.0000  VIRIAL  =         0.0000  VOLUME     =         0.0000
                                                    Density    =         0.0000
 DV/DL  =       137.1717
 ------------------------------------------------------------------------------

      A V E R A G E S   O V E R    1000 S T E P S

 NSTEP =     2000   TIME(PS) =     204.000  TEMP(K) =   301.15  PRESS =  -507.1
 Etot   =    -52991.1622  EKtot   =     12477.3649  EPtot      =    -65468.5270
 BOND   =         0.8724  ANGLE   =         4.6737  DIHED      =         5.2590
 1-4 NB =         0.3543  1-4 EEL =         8.2912  VDWAALS    =      9680.2870
 EELEC  =    -75168.2646  EHBOND  =         0.0000  RESTRAINT  =         0.0000
 EKCMT  =      6287.6261  VIRIAL  =      8781.6168  VOLUME     =    227748.1702
                                                    Density    =         0.9130
 DV/DL  =       131.4334
 ------------------------------------------------------------------------------

      R M S  F L U C T U A T I O N S

 NSTEP =     2000   TIME(PS) =     204.000  TEMP(K) =     1.78  PRESS =   118.9
 Etot   =       123.0644  EKtot   =        73.9083  EPtot      =       114.5976
 BOND   =         0.5655  ANGLE   =         0.8521  DIHED      =         0.0542
 1-4 NB =         0.1851  1-4 EEL =         0.1207  VDWAALS    =       120.9810
 EELEC  =       188.0547  EHBOND  =         0.0000  RESTRAINT  =         0.0000
 EKCMT  =        50.7137  VIRIAL  =       602.0316  VOLUME     =       584.4609
                                                    Density    =         0.0023
 DV/DL  =        10.1119
 ------------------------------------------------------------------------------

      A V E R A G E S   O V E R    1000 S T E P S

 NSTEP =     2000   TIME(PS) =     204.000  TEMP(K) =   301.15  PRESS =  -507.1
 Etot   =    -52991.1622  EKtot   =     12477.3649  EPtot      =    -65468.5270
 BOND   =         0.8724  ANGLE   =         4.6737  DIHED      =         5.2590
 1-4 NB =         0.3543  1-4 EEL =         8.2912  VDWAALS    =      9680.2870
 EELEC  =    -75168.2646  EHBOND  =         0.0000  RESTRAINT  =         0.0000
 EKCMT  =      6287.6261  VIRIAL  =      8781.6168  VOLUME     =    227748.1702
                                                    Density    =         0.9130
 DV/DL  =       131.4334
 ------------------------------------------------------------------------------

      R M S  F L U C T U A T I O N S

 NSTEP =     2000   TIME(PS) =     204.000  TEMP(K) =     1.78  PRESS =   118.9
 Etot   =       123.0644  EKtot   =        73.9083  EPtot      =       114.5976
 BOND   =         0.5655  ANGLE   =         0.8521  DIHED      =         0.0542
 1-4 NB =         0.1851  1-4 EEL =         0.1207  VDWAALS    =       120.9810
 EELEC  =       188.0547  EHBOND  =         0.0000  RESTRAINT  =         0.0000
 EKCMT  =        50.7137  VIRIAL  =       602.0316  VOLUME     =       584.4609
                                                    Density    =         0.0023
 DV/DL  =        10.1119
 ------------------------------------------------------------------------------

      DV/DL, AVERAGES OVER    1000 STEPS

 NSTEP =     2000   TIME(PS) =     204.000  TEMP(K) =     1.78  PRESS =     0.0
 Etot   =         0.0000  EKtot   =         0.0000  EPtot      =       131.4334
 BOND   =         0.0000  ANGLE   =         0.0000  DIHED      =         0.0000
 1-4 NB =         0.0000  1-4 EEL =       -10.4468  VDWAALS    =         0.0000
 EELEC  =       141.8802  EHBOND  =         0.0000  RESTRAINT  =         0.0000
 EKCMT  =         0.0000  VIRIAL  =         0.0000  VOLUME     =         0.0000
                                                    Density    =         0.0000
 DV/DL  =       131.4334
 ------------------------------------------------------------------------------

      A V E R A G E S   O V E R    1000 S T E P S

 NSTEP =   500000   TIME(PS) =    1200.000  TEMP(K) =   299.65  PRESS =    36.3
 Etot   =    -53927.9039  EKtot   =     12415.4045  EPtot      =    -66343.3085
 BOND   =         0.5441  ANGLE   =         5.2405  DIHED      =         5.2784
 1-4 NB =         0.3913  1-4 EEL =         8.2989  VDWAALS    =      9975.4147
 EELEC  =    -76338.4763  EHBOND  =         0.0000  RESTRAINT  =         0.0000
 EKCMT  =      6242.3622  VIRIAL  =      6076.2292  VOLUME     =    211840.2149
                                                    Density    =         0.9815
 DV/DL  =       134.6046
 ------------------------------------------------------------------------------

      R M S  F L U C T U A T I O N S

 NSTEP =   500000   TIME(PS) =    1200.000  TEMP(K) =     1.70  PRESS =    98.5
 Etot   =        65.3410  EKtot   =        70.5678  EPtot      =        70.1556
 BOND   =         0.4117  ANGLE   =         1.0690  DIHED      =         0.0846
 1-4 NB =         0.2161  1-4 EEL =         0.1029  VDWAALS    =        89.1908
 EELEC  =       107.8884  EHBOND  =         0.0000  RESTRAINT  =         0.0000
 EKCMT  =        50.6760  VIRIAL  =       460.4374  VOLUME     =        40.1089
                                                    Density    =         0.0002
 DV/DL  =         9.0409
 ------------------------------------------------------------------------------

      A V E R A G E S   O V E R    1000 S T E P S

 NSTEP =   500000   TIME(PS) =    1200.000  TEMP(K) =   299.65  PRESS =    36.3
 Etot   =    -53927.9039  EKtot   =     12415.4045  EPtot      =    -66343.3085
 BOND   =         0.5441  ANGLE   =         5.2405  DIHED      =         5.2784
 1-4 NB =         0.3913  1-4 EEL =         8.2989  VDWAALS    =      9975.4147
 EELEC  =    -76338.4763  EHBOND  =         0.0000  RESTRAINT  =         0.0000
 EKCMT  =      6242.3622  VIRIAL  =      6076.2292  VOLUME     =    211840.2149
                                                    Density    =         0.9815
 DV/DL  =       134.6046
 ------------------------------------------------------------------------------

      R M S  F L U C T U A T I O N S

 NSTEP =   500000   TIME(PS) =    1200.000  TEMP(K) =     1.70  PRESS =    98.5
 Etot   =        65.3410  EKtot   =        70.5678  EPtot      =        70.1556
 BOND   =         0.4117  ANGLE   =         1.0690  DIHED      =         0.0846
 1-4 NB =         0.2161  1-4 EEL =         0.1029  VDWAALS    =        89.1908
 EELEC  =       107.8884  EHBOND  =         0.0000  RESTRAINT  =         0.0000
 EKCMT  =        50.6760  VIRIAL  =       460.4374  VOLUME     =        40.1089
                                                    Density    =         0.0002
 DV/DL  =         9.0409
 ------------------------------------------------------------------------------

      DV/DL, AVERAGES OVER    1000 STEPS

 NSTEP =   500000   TIME(PS) =    1200.000  TEMP(K) =     1.70  PRESS =     0.0
 Etot   =         0.0000  EKtot   =         0.0000  EPtot      =       134.6046
 BOND   =         0.0000  ANGLE   =         0.0000  DIHED      =         0.0000
 1-4 NB =         0.0000  1-4 EEL =       -10.4565  VDWAALS    =         0.0000
 EELEC  =       145.0611  EHBOND  =         0.0000  RESTRAINT  =         0.0000
 EKCMT  =         0.0000  VIRIAL  =         0.0000  VOLUME     =         0.0000
                                                    Density    =         0.0000
 DV/DL  =       134.6046
 ------------------------------------------------------------------------------

      A V E R A G E S   O V E R  500000 S T E P S

 NSTEP =   500000   TIME(PS) =    1200.000  TEMP(K) =   300.11  PRESS =    -8.7
 Etot   =    -53865.4838  EKtot   =     12434.6277  EPtot      =    -66300.1115
 BOND   =         0.9634  ANGLE   =         5.2805  DIHED      =         5.2832
 1-4 NB =         0.3677  1-4 EEL =         8.2906  VDWAALS    =      9911.2580
 EELEC  =    -76231.5550  EHBOND  =         0.0000  RESTRAINT  =         0.0000
 EKCMT  =      6236.3609  VIRIAL  =      6277.9947  VOLUME     =    211746.0351
                                                    Density    =         0.9820
 DV/DL  =       134.5511
 ------------------------------------------------------------------------------

      R M S  F L U C T U A T I O N S

 NSTEP =   500000   TIME(PS) =    1200.000  TEMP(K) =     2.08  PRESS =   141.2
 Etot   =       168.9097  EKtot   =        86.3420  EPtot      =       143.9008
 BOND   =         0.7843  ANGLE   =         1.2637  DIHED      =         0.0933
 1-4 NB =         0.2134  1-4 EEL =         0.1297  VDWAALS    =       125.2581
 EELEC  =       218.0402  EHBOND  =         0.0000  RESTRAINT  =         0.0000
 EKCMT  =        61.0645  VIRIAL  =       650.8871  VOLUME     =      1635.8933
                                                    Density    =         0.0071
 DV/DL  =        10.3354
 ------------------------------------------------------------------------------

      A V E R A G E S   O V E R  500000 S T E P S

 NSTEP =   500000   TIME(PS) =    1200.000  TEMP(K) =   300.11  PRESS =    -8.7
 Etot   =    -53865.4838  EKtot   =     12434.6277  EPtot      =    -66300.1115
 BOND   =         0.9634  ANGLE   =         5.2805  DIHED      =         5.2832
 1-4 NB =         0.3677  1-4 EEL =         8.2906  VDWAALS    =      9911.2580
 EELEC  =    -76231.5550  EHBOND  =         0.0000  RESTRAINT  =         0.0000
 EKCMT  =      6236.3609  VIRIAL  =      6277.9947  VOLUME     =    211746.0351
                                                    Density    =         0.9820
 DV/DL  =       134.5511
 ------------------------------------------------------------------------------

      R M S  F L U C T U A T I O N S

 NSTEP =   500000   TIME(PS) =    1200.000  TEMP(K) =     2.08  PRESS =   141.2
 Etot   =       168.9097  EKtot   =        86.3420  EPtot      =       143.9008
 BOND   =         0.7843  ANGLE   =         1.2637  DIHED      =         0.0933
 1-4 NB =         0.2134  1-4 EEL =         0.1297  VDWAALS    =       125.2581
 EELEC  =       218.0402  EHBOND  =         0.0000  RESTRAINT  =         0.0000
 EKCMT  =        61.0645  VIRIAL  =       650.8871  VOLUME     =      1635.8933
                                                    Density    =         0.0071
 DV/DL  =        10.3354
 ------------------------------------------------------------------------------

      DV/DL, AVERAGES OVER  500000 STEPS

 NSTEP =   500000   TIME(PS) =    1200.000  TEMP(K) =     2.08  PRESS =     0.0
 Etot   =         0.0000  EKtot   =         0.0000  EPtot      =       134.5511
 BOND   =         0.0000  ANGLE   =         0.0000  DIHED      =         0.0000
 1-4 NB =         0.0000  1-4 EEL =       -10.4460  VDWAALS    =         0.0000
 EELEC  =       144.9971  EHBOND  =         0.0000  RESTRAINT  =         0.0000
 EKCMT  =         0.0000  VIRIAL  =         0.0000  VOLUME     =         0.0000
                                                    Density    =         0.0000
 DV/DL  =       134.5511
 ------------------------------------------------------------------------------
