-------------------------------------------------------
          Amber 20 PMEMD                              2020
          -------------------------------------------------------

  [-O]verwriting output

File Assignments:

 Here is the input file:

 &cntrl
   nstlim=500000, nscm=1000,
   ntx=1, irest=0, ntpr=1000,
   tempi=300.0, temp0=300.0, ntt=3, gamma_ln=2.0,

   ntb=1, igb=0, cut=10.0,
   dt=0.002, ig=-1,
   ntc=2, ntf=2,
   iwrap=0,
   ntwr=1000, ntwx=50000, ntave=1000,
   ioutfm=1, ntwv=-1,
   ifsc = 0, icfe=1,
   clambda=0.20634,
   timask1=':1',
   timask2=':2', crgmask = ':2',
/

Note: ig = -1. Setting random seed to   413785 based on wallclock time in
      microseconds.

--------------------------------------------------------------------------------
   1.  RESOURCE   USE:
--------------------------------------------------------------------------------

 getting box info from netcdf restart file
 NATOM  =      14 NTYPES =       6 NBONH =       6 MBONA  =       6
 NTHETH =      12 MTHETA =       6 NPHIH =      24 MPHIA  =       2
 NHPARM =       0 NPARM  =       0 NNB   =      44 NRES   =       2
 NBONA  =       6 NTHETA =       6 NPHIA =       2 NUMBND =       3
 NUMANG =       4 NPTRA  =       3 NATYP =       6 NPHB   =       1
 IFBOX  =       2 NMXRS  =       7 IFCAP =       0 NEXTRA =       0
 NCOPY  =       0

     BOX TYPE: TRUNCATED OCTAHEDRON

--------------------------------------------------------------------------------
   2.  CONTROL  DATA  FOR  THE  RUN
--------------------------------------------------------------------------------

default_name

General flags:
     imin    =       0, nmropt  =       0

Nature and format of input:
     ntx     =       1, irest   =       0, ntrx    =       1

Nature and format of output:
     ntxo    =       2, ntpr    =    1000, ntrx    =       1, ntwr    =    1000
     iwrap   =       0, ntwx    =   50000, ntwv    =      -1, ntwe    =       0
     ioutfm  =       1, ntwprt  =       0, idecomp =       0, rbornstat=      0

Potential function:
     ntf     =       2, ntb     =       1, igb     =       0, nsnb    =      25
     ipol    =       0, gbsa    =       0, iesp    =       0
     dielc   =   1.00000, cut     =  10.00000, intdiel =   1.00000

Frozen or restrained atoms:
     ibelly  =       0, ntr     =       0

Molecular dynamics:
     nstlim  =    500000, nscm    =      1000, nrespa  =         1
     t       =   0.00000, dt      =   0.00200, vlimit  =  -1.00000

Langevin dynamics temperature regulation:
     ig      =  413785
     temp0   = 300.00000, tempi   = 300.00000, gamma_ln=   2.00000

SHAKE:
     ntc     =       2, jfastw  =       0
     tol     =   0.00001

Free energy options:
     icfe    =       1, ifsc    =       0, klambda =       1
     clambda =  0.2063, scalpha =  0.5000, scbeta  = 12.0000
     sceeorder =       2
     dynlmb =  0.0000 logdvdl =       0

Ewald parameters:
     verbose =       0, ew_type =       0, nbflag  =       1, use_pme =       1
     vdwmeth =       1, eedmeth =       1, netfrc  =       1
     Box X =   66.953   Box Y =   66.953   Box Z =   66.953
     Alpha =  109.471   Beta  =  109.471   Gamma =  109.471
     NFFT1 =   64       NFFT2 =   64       NFFT3 =   64
     Cutoff=   10.000   Tol   =0.100E-04
     Ewald Coefficient =  0.27511
     Interpolation order =    4
     TI Mask 1 :1; matches      7 atoms
     TI Mask 2 :2; matches      7 atoms
     TI region 1:       7 atoms
     TI region 2:       7 atoms
Removing charge of      -0.8188 from atom       8
Removing charge of      -0.8188 from atom       9
Removing charge of       0.8054 from atom      10
Removing charge of      -0.1021 from atom      11
Removing charge of      -0.0219 from atom      12
Removing charge of      -0.0219 from atom      13
Removing charge of      -0.0219 from atom      14
Total charge of  -0.99999900 removed from       7 atoms
     Checking for mismatched coordinates.

--------------------------------------------------------------------------------
   3.  ATOMIC COORDINATES AND VELOCITIES
--------------------------------------------------------------------------------

default_name
 begin time read from input coords =     0.000 ps

 Number of triangulated 3-point waters found:        0

     Sum of charges for TI region  1 =  -0.99999900
     Skip neutralizing charges...

     Sum of charges for TI region  2 =   0.00000000
     Skip neutralizing charges...

--------------------------------------------------------------------------------
   4.  RESULTS
 NSTEP =        0   TIME(PS) =       0.000  TEMP(K) =   302.54  PRESS =     0.0
 Etot   =        15.8394  EKtot   =         5.4108  EPtot      =        10.4285
 BOND   =         0.0316  ANGLE   =         2.8147  DIHED      =         5.2200
 1-4 NB =         0.2819  1-4 EEL =         8.2742  VDWAALS    =        -0.0001
 EELEC  =        -6.1938  EHBOND  =         0.0000  RESTRAINT  =         0.0000
 DV/DL  =        -2.6213
 ------------------------------------------------------------------------------

      A V E R A G E S   O V E R    1000 S T E P S

 NSTEP =     1000   TIME(PS) =       2.000  TEMP(K) =   247.77  PRESS =     0.0
 Etot   =        17.7966  EKtot   =         4.4314  EPtot      =        13.3652
 BOND   =         1.0432  ANGLE   =         4.6274  DIHED      =         5.2653
 1-4 NB =         0.3421  1-4 EEL =         8.2835  VDWAALS    =        -0.0001
 EELEC  =        -6.1961  EHBOND  =         0.0000  RESTRAINT  =         0.0000
 DV/DL  =        -2.6301
 ------------------------------------------------------------------------------

      R M S  F L U C T U A T I O N S

 NSTEP =     1000   TIME(PS) =       2.000  TEMP(K) =    88.73  PRESS =     0.0
 Etot   =         2.2615  EKtot   =         1.5870  EPtot      =         1.3977
 BOND   =         0.9473  ANGLE   =         0.9701  DIHED      =         0.0814
 1-4 NB =         0.1884  1-4 EEL =         0.1346  VDWAALS    =         0.0000
 EELEC  =         0.0021  EHBOND  =         0.0000  RESTRAINT  =         0.0000
 DV/DL  =         0.1695
 ------------------------------------------------------------------------------

      A V E R A G E S   O V E R    1000 S T E P S

 NSTEP =     1000   TIME(PS) =       2.000  TEMP(K) =   247.77  PRESS =     0.0
 Etot   =        17.7966  EKtot   =         4.4314  EPtot      =        13.3652
 BOND   =         1.0432  ANGLE   =         4.6274  DIHED      =         5.2653
 1-4 NB =         0.3421  1-4 EEL =         8.2835  VDWAALS    =        -0.0001
 EELEC  =        -6.1961  EHBOND  =         0.0000  RESTRAINT  =         0.0000
 DV/DL  =        -2.6301
 ------------------------------------------------------------------------------

      R M S  F L U C T U A T I O N S

 NSTEP =     1000   TIME(PS) =       2.000  TEMP(K) =    88.73  PRESS =     0.0
 Etot   =         2.2615  EKtot   =         1.5870  EPtot      =         1.3977
 BOND   =         0.9473  ANGLE   =         0.9701  DIHED      =         0.0814
 1-4 NB =         0.1884  1-4 EEL =         0.1346  VDWAALS    =         0.0000
 EELEC  =         0.0021  EHBOND  =         0.0000  RESTRAINT  =         0.0000
 DV/DL  =         0.1695
 ------------------------------------------------------------------------------

      DV/DL, AVERAGES OVER    1000 STEPS

 NSTEP =     1000   TIME(PS) =       2.000  TEMP(K) =    88.73  PRESS =     0.0
 Etot   =         0.0000  EKtot   =         0.0000  EPtot      =        -2.6301
 BOND   =         0.0000  ANGLE   =         0.0000  DIHED      =         0.0000
 1-4 NB =         0.0000  1-4 EEL =       -10.4371  VDWAALS    =         0.0000
 EELEC  =         7.8070  EHBOND  =         0.0000  RESTRAINT  =         0.0000
 DV/DL  =        -2.6301
 ------------------------------------------------------------------------------

      A V E R A G E S   O V E R    1000 S T E P S

 NSTEP =     2000   TIME(PS) =       4.000  TEMP(K) =   307.83  PRESS =     0.0
 Etot   =        19.5389  EKtot   =         5.5055  EPtot      =        14.0334
 BOND   =         0.9770  ANGLE   =         5.3655  DIHED      =         5.2493
 1-4 NB =         0.3573  1-4 EEL =         8.2806  VDWAALS    =        -0.0001
 EELEC  =        -6.1963  EHBOND  =         0.0000  RESTRAINT  =         0.0000
 DV/DL  =        -2.6262
 ------------------------------------------------------------------------------

      R M S  F L U C T U A T I O N S

 NSTEP =     2000   TIME(PS) =       4.000  TEMP(K) =    82.25  PRESS =     0.0
 Etot   =         1.6409  EKtot   =         1.4710  EPtot      =         1.2225
 BOND   =         0.7302  ANGLE   =         1.1771  DIHED      =         0.0411
 1-4 NB =         0.2115  1-4 EEL =         0.1213  VDWAALS    =         0.0000
 EELEC  =         0.0022  EHBOND  =         0.0000  RESTRAINT  =         0.0000
 DV/DL  =         0.1529
 ------------------------------------------------------------------------------

      A V E R A G E S   O V E R    1000 S T E P S

 NSTEP =     2000   TIME(PS) =       4.000  TEMP(K) =   307.83  PRESS =     0.0
 Etot   =        19.5389  EKtot   =         5.5055  EPtot      =        14.0334
 BOND   =         0.9770  ANGLE   =         5.3655  DIHED      =         5.2493
 1-4 NB =         0.3573  1-4 EEL =         8.2806  VDWAALS    =        -0.0001
 EELEC  =        -6.1963  EHBOND  =         0.0000  RESTRAINT  =         0.0000
 DV/DL  =        -2.6262
 ------------------------------------------------------------------------------

      R M S  F L U C T U A T I O N S

 NSTEP =     2000   TIME(PS) =       4.000  TEMP(K) =    82.25  PRESS =     0.0
 Etot   =         1.6409  EKtot   =         1.4710  EPtot      =         1.2225
 BOND   =         0.7302  ANGLE   =         1.1771  DIHED      =         0.0411
 1-4 NB =         0.2115  1-4 EEL =         0.1213  VDWAALS    =         0.0000
 EELEC  =         0.0022  EHBOND  =         0.0000  RESTRAINT  =         0.0000
 DV/DL  =         0.1529
 ------------------------------------------------------------------------------

      DV/DL, AVERAGES OVER    1000 STEPS

 NSTEP =     2000   TIME(PS) =       4.000  TEMP(K) =    82.25  PRESS =     0.0
 Etot   =         0.0000  EKtot   =         0.0000  EPtot      =        -2.6262
 BOND   =         0.0000  ANGLE   =         0.0000  DIHED      =         0.0000
 1-4 NB =         0.0000  1-4 EEL =       -10.4334  VDWAALS    =         0.0000
 EELEC  =         7.8073  EHBOND  =         0.0000  RESTRAINT  =         0.0000
 DV/DL  =        -2.6262
 ------------------------------------------------------------------------------

      A V E R A G E S   O V E R    1000 S T E P S

 NSTEP =   500000   TIME(PS) =    1000.000  TEMP(K) =   231.86  PRESS =     0.0
 Etot   =        17.6235  EKtot   =         4.1468  EPtot      =        13.4767
 BOND   =         1.0627  ANGLE   =         4.6980  DIHED      =         5.2658
 1-4 NB =         0.3634  1-4 EEL =         8.2830  VDWAALS    =        -0.0001
 EELEC  =        -6.1961  EHBOND  =         0.0000  RESTRAINT  =         0.0000
 DV/DL  =        -2.6295
 ------------------------------------------------------------------------------

      R M S  F L U C T U A T I O N S

 NSTEP =   500000   TIME(PS) =    1000.000  TEMP(K) =    71.09  PRESS =     0.0
 Etot   =         1.4785  EKtot   =         1.2714  EPtot      =         1.0867
 BOND   =         0.7138  ANGLE   =         0.9037  DIHED      =         0.0668
 1-4 NB =         0.2191  1-4 EEL =         0.1496  VDWAALS    =         0.0000
 EELEC  =         0.0015  EHBOND  =         0.0000  RESTRAINT  =         0.0000
 DV/DL  =         0.1884
 ------------------------------------------------------------------------------

      A V E R A G E S   O V E R    1000 S T E P S

 NSTEP =   500000   TIME(PS) =    1000.000  TEMP(K) =   231.86  PRESS =     0.0
 Etot   =        17.6235  EKtot   =         4.1468  EPtot      =        13.4767
 BOND   =         1.0627  ANGLE   =         4.6980  DIHED      =         5.2658
 1-4 NB =         0.3634  1-4 EEL =         8.2830  VDWAALS    =        -0.0001
 EELEC  =        -6.1961  EHBOND  =         0.0000  RESTRAINT  =         0.0000
 DV/DL  =        -2.6295
 ------------------------------------------------------------------------------

      R M S  F L U C T U A T I O N S

 NSTEP =   500000   TIME(PS) =    1000.000  TEMP(K) =    71.09  PRESS =     0.0
 Etot   =         1.4785  EKtot   =         1.2714  EPtot      =         1.0867
 BOND   =         0.7138  ANGLE   =         0.9037  DIHED      =         0.0668
 1-4 NB =         0.2191  1-4 EEL =         0.1496  VDWAALS    =         0.0000
 EELEC  =         0.0015  EHBOND  =         0.0000  RESTRAINT  =         0.0000
 DV/DL  =         0.1884
 ------------------------------------------------------------------------------

      DV/DL, AVERAGES OVER    1000 STEPS

 NSTEP =   500000   TIME(PS) =    1000.000  TEMP(K) =    71.09  PRESS =     0.0
 Etot   =         0.0000  EKtot   =         0.0000  EPtot      =        -2.6295
 BOND   =         0.0000  ANGLE   =         0.0000  DIHED      =         0.0000
 1-4 NB =         0.0000  1-4 EEL =       -10.4365  VDWAALS    =         0.0000
 EELEC  =         7.8070  EHBOND  =         0.0000  RESTRAINT  =         0.0000
 DV/DL  =        -2.6295
 ------------------------------------------------------------------------------

      A V E R A G E S   O V E R  500000 S T E P S

 NSTEP =   500000   TIME(PS) =    1000.000  TEMP(K) =   296.44  PRESS =     0.0
 Etot   =        19.1178  EKtot   =         5.3017  EPtot      =        13.8161
 BOND   =         0.9780  ANGLE   =         5.1101  DIHED      =         5.2759
 1-4 NB =         0.3620  1-4 EEL =         8.2868  VDWAALS    =        -0.0001
 EELEC  =        -6.1966  EHBOND  =         0.0000  RESTRAINT  =         0.0000
 DV/DL  =        -2.6336
 ------------------------------------------------------------------------------

      R M S  F L U C T U A T I O N S

 NSTEP =   500000   TIME(PS) =    1000.000  TEMP(K) =   101.86  PRESS =     0.0
 Etot   =         2.3718  EKtot   =         1.8218  EPtot      =         1.4639
 BOND   =         0.8041  ANGLE   =         1.1935  DIHED      =         0.0843
 1-4 NB =         0.2064  1-4 EEL =         0.1290  VDWAALS    =         0.0000
 EELEC  =         0.0022  EHBOND  =         0.0000  RESTRAINT  =         0.0000
 DV/DL  =         0.1625
 ------------------------------------------------------------------------------

      A V E R A G E S   O V E R  500000 S T E P S

 NSTEP =   500000   TIME(PS) =    1000.000  TEMP(K) =   296.44  PRESS =     0.0
 Etot   =        19.1178  EKtot   =         5.3017  EPtot      =        13.8161
 BOND   =         0.9780  ANGLE   =         5.1101  DIHED      =         5.2759
 1-4 NB =         0.3620  1-4 EEL =         8.2868  VDWAALS    =        -0.0001
 EELEC  =        -6.1966  EHBOND  =         0.0000  RESTRAINT  =         0.0000
 DV/DL  =        -2.6336
 ------------------------------------------------------------------------------

      R M S  F L U C T U A T I O N S

 NSTEP =   500000   TIME(PS) =    1000.000  TEMP(K) =   101.86  PRESS =     0.0
 Etot   =         2.3718  EKtot   =         1.8218  EPtot      =         1.4639
 BOND   =         0.8041  ANGLE   =         1.1935  DIHED      =         0.0843
 1-4 NB =         0.2064  1-4 EEL =         0.1290  VDWAALS    =         0.0000
 EELEC  =         0.0022  EHBOND  =         0.0000  RESTRAINT  =         0.0000
 DV/DL  =         0.1625
 ------------------------------------------------------------------------------

      DV/DL, AVERAGES OVER  500000 STEPS

 NSTEP =   500000   TIME(PS) =    1000.000  TEMP(K) =   101.86  PRESS =     0.0
 Etot   =         0.0000  EKtot   =         0.0000  EPtot      =        -2.6336
 BOND   =         0.0000  ANGLE   =         0.0000  DIHED      =         0.0000
 1-4 NB =         0.0000  1-4 EEL =       -10.4412  VDWAALS    =         0.0000
 EELEC  =         7.8076  EHBOND  =         0.0000  RESTRAINT  =         0.0000
 DV/DL  =        -2.6336
 ------------------------------------------------------------------------------
