-------------------------------------------------------
          Amber 20 PMEMD                              2020
          -------------------------------------------------------

  [-O]verwriting output

File Assignments:

 Here is the input file:

 &cntrl
   nstlim=500000, nscm=1000,
   ntx=1, irest=0, ntpr=1000,
   tempi=300.0, temp0=300.0, ntt=3, gamma_ln=2.0,

   ntb=1, igb=0, cut=10.0,
   dt=0.002, ig=-1,
   ntc=2, ntf=2,
   iwrap=0,
   ntwr=1000, ntwx=50000, ntave=1000,
   ioutfm=1, ntwv=-1,
   ifsc = 0, icfe=1,
   clambda=0.00922,
   timask1=':1',
   timask2=':2', crgmask = ':2',
/

Note: ig = -1. Setting random seed to   202545 based on wallclock time in
      microseconds.

--------------------------------------------------------------------------------
   1.  RESOURCE   USE:
--------------------------------------------------------------------------------

 getting box info from netcdf restart file
 NATOM  =      14 NTYPES =       6 NBONH =       6 MBONA  =       6
 NTHETH =      12 MTHETA =       6 NPHIH =      24 MPHIA  =       2
 NHPARM =       0 NPARM  =       0 NNB   =      44 NRES   =       2
 NBONA  =       6 NTHETA =       6 NPHIA =       2 NUMBND =       3
 NUMANG =       4 NPTRA  =       3 NATYP =       6 NPHB   =       1
 IFBOX  =       2 NMXRS  =       7 IFCAP =       0 NEXTRA =       0
 NCOPY  =       0

     BOX TYPE: TRUNCATED OCTAHEDRON

--------------------------------------------------------------------------------
   2.  CONTROL  DATA  FOR  THE  RUN
--------------------------------------------------------------------------------

default_name

General flags:
     imin    =       0, nmropt  =       0

Nature and format of input:
     ntx     =       1, irest   =       0, ntrx    =       1

Nature and format of output:
     ntxo    =       2, ntpr    =    1000, ntrx    =       1, ntwr    =    1000
     iwrap   =       0, ntwx    =   50000, ntwv    =      -1, ntwe    =       0
     ioutfm  =       1, ntwprt  =       0, idecomp =       0, rbornstat=      0

Potential function:
     ntf     =       2, ntb     =       1, igb     =       0, nsnb    =      25
     ipol    =       0, gbsa    =       0, iesp    =       0
     dielc   =   1.00000, cut     =  10.00000, intdiel =   1.00000

Frozen or restrained atoms:
     ibelly  =       0, ntr     =       0

Molecular dynamics:
     nstlim  =    500000, nscm    =      1000, nrespa  =         1
     t       =   0.00000, dt      =   0.00200, vlimit  =  -1.00000

Langevin dynamics temperature regulation:
     ig      =  202545
     temp0   = 300.00000, tempi   = 300.00000, gamma_ln=   2.00000

SHAKE:
     ntc     =       2, jfastw  =       0
     tol     =   0.00001

Free energy options:
     icfe    =       1, ifsc    =       0, klambda =       1
     clambda =  0.0092, scalpha =  0.5000, scbeta  = 12.0000
     sceeorder =       2
     dynlmb =  0.0000 logdvdl =       0

Ewald parameters:
     verbose =       0, ew_type =       0, nbflag  =       1, use_pme =       1
     vdwmeth =       1, eedmeth =       1, netfrc  =       1
     Box X =   66.953   Box Y =   66.953   Box Z =   66.953
     Alpha =  109.471   Beta  =  109.471   Gamma =  109.471
     NFFT1 =   64       NFFT2 =   64       NFFT3 =   64
     Cutoff=   10.000   Tol   =0.100E-04
     Ewald Coefficient =  0.27511
     Interpolation order =    4
     TI Mask 1 :1; matches      7 atoms
     TI Mask 2 :2; matches      7 atoms
     TI region 1:       7 atoms
     TI region 2:       7 atoms
Removing charge of      -0.8188 from atom       8
Removing charge of      -0.8188 from atom       9
Removing charge of       0.8054 from atom      10
Removing charge of      -0.1021 from atom      11
Removing charge of      -0.0219 from atom      12
Removing charge of      -0.0219 from atom      13
Removing charge of      -0.0219 from atom      14
Total charge of  -0.99999900 removed from       7 atoms
     Checking for mismatched coordinates.

--------------------------------------------------------------------------------
   3.  ATOMIC COORDINATES AND VELOCITIES
--------------------------------------------------------------------------------

default_name
 begin time read from input coords =     0.000 ps

 Number of triangulated 3-point waters found:        0

     Sum of charges for TI region  1 =  -0.99999900
     Skip neutralizing charges...

     Sum of charges for TI region  2 =   0.00000000
     Skip neutralizing charges...

--------------------------------------------------------------------------------
   4.  RESULTS
 NSTEP =        0   TIME(PS) =       0.000  TEMP(K) =   394.00  PRESS =     0.0
 Etot   =        17.9914  EKtot   =         7.0466  EPtot      =        10.9448
 BOND   =         0.0366  ANGLE   =         2.8228  DIHED      =         5.2200
 1-4 NB =         0.2754  1-4 EEL =        10.3224  VDWAALS    =        -0.0001
 EELEC  =        -7.7323  EHBOND  =         0.0000  RESTRAINT  =         0.0000
 DV/DL  =        -2.6142
 ------------------------------------------------------------------------------

      A V E R A G E S   O V E R    1000 S T E P S

 NSTEP =     1000   TIME(PS) =       2.000  TEMP(K) =   256.76  PRESS =     0.0
 Etot   =        17.8654  EKtot   =         4.5920  EPtot      =        13.2734
 BOND   =         0.7635  ANGLE   =         4.3666  DIHED      =         5.2367
 1-4 NB =         0.3189  1-4 EEL =        10.3239  VDWAALS    =        -0.0001
 EELEC  =        -7.7361  EHBOND  =         0.0000  RESTRAINT  =         0.0000
 DV/DL  =        -2.6119
 ------------------------------------------------------------------------------

      R M S  F L U C T U A T I O N S

 NSTEP =     1000   TIME(PS) =       2.000  TEMP(K) =   118.06  PRESS =     0.0
 Etot   =         3.1636  EKtot   =         2.1116  EPtot      =         1.4594
 BOND   =         0.7129  ANGLE   =         1.1075  DIHED      =         0.0335
 1-4 NB =         0.1580  1-4 EEL =         0.1295  VDWAALS    =         0.0000
 EELEC  =         0.0020  EHBOND  =         0.0000  RESTRAINT  =         0.0000
 DV/DL  =         0.1307
 ------------------------------------------------------------------------------

      A V E R A G E S   O V E R    1000 S T E P S

 NSTEP =     1000   TIME(PS) =       2.000  TEMP(K) =   256.76  PRESS =     0.0
 Etot   =        17.8654  EKtot   =         4.5920  EPtot      =        13.2734
 BOND   =         0.7635  ANGLE   =         4.3666  DIHED      =         5.2367
 1-4 NB =         0.3189  1-4 EEL =        10.3239  VDWAALS    =        -0.0001
 EELEC  =        -7.7361  EHBOND  =         0.0000  RESTRAINT  =         0.0000
 DV/DL  =        -2.6119
 ------------------------------------------------------------------------------

      R M S  F L U C T U A T I O N S

 NSTEP =     1000   TIME(PS) =       2.000  TEMP(K) =   118.06  PRESS =     0.0
 Etot   =         3.1636  EKtot   =         2.1116  EPtot      =         1.4594
 BOND   =         0.7129  ANGLE   =         1.1075  DIHED      =         0.0335
 1-4 NB =         0.1580  1-4 EEL =         0.1295  VDWAALS    =         0.0000
 EELEC  =         0.0020  EHBOND  =         0.0000  RESTRAINT  =         0.0000
 DV/DL  =         0.1307
 ------------------------------------------------------------------------------

      DV/DL, AVERAGES OVER    1000 STEPS

 NSTEP =     1000   TIME(PS) =       2.000  TEMP(K) =   118.06  PRESS =     0.0
 Etot   =         0.0000  EKtot   =         0.0000  EPtot      =        -2.6119
 BOND   =         0.0000  ANGLE   =         0.0000  DIHED      =         0.0000
 1-4 NB =         0.0000  1-4 EEL =       -10.4200  VDWAALS    =         0.0000
 EELEC  =         7.8080  EHBOND  =         0.0000  RESTRAINT  =         0.0000
 DV/DL  =        -2.6119
 ------------------------------------------------------------------------------

      A V E R A G E S   O V E R    1000 S T E P S

 NSTEP =     2000   TIME(PS) =       4.000  TEMP(K) =   472.24  PRESS =     0.0
 Etot   =        25.2093  EKtot   =         8.4459  EPtot      =        16.7634
 BOND   =         1.6006  ANGLE   =         6.8145  DIHED      =         5.2934
 1-4 NB =         0.4417  1-4 EEL =        10.3481  VDWAALS    =        -0.0001
 EELEC  =        -7.7348  EHBOND  =         0.0000  RESTRAINT  =         0.0000
 DV/DL  =        -2.6376
 ------------------------------------------------------------------------------

      R M S  F L U C T U A T I O N S

 NSTEP =     2000   TIME(PS) =       4.000  TEMP(K) =   120.49  PRESS =     0.0
 Etot   =         2.0712  EKtot   =         2.1550  EPtot      =         1.9477
 BOND   =         1.2232  ANGLE   =         1.6642  DIHED      =         0.0953
 1-4 NB =         0.3792  1-4 EEL =         0.2217  VDWAALS    =         0.0000
 EELEC  =         0.0030  EHBOND  =         0.0000  RESTRAINT  =         0.0000
 DV/DL  =         0.2238
 ------------------------------------------------------------------------------

      A V E R A G E S   O V E R    1000 S T E P S

 NSTEP =     2000   TIME(PS) =       4.000  TEMP(K) =   472.24  PRESS =     0.0
 Etot   =        25.2093  EKtot   =         8.4459  EPtot      =        16.7634
 BOND   =         1.6006  ANGLE   =         6.8145  DIHED      =         5.2934
 1-4 NB =         0.4417  1-4 EEL =        10.3481  VDWAALS    =        -0.0001
 EELEC  =        -7.7348  EHBOND  =         0.0000  RESTRAINT  =         0.0000
 DV/DL  =        -2.6376
 ------------------------------------------------------------------------------

      R M S  F L U C T U A T I O N S

 NSTEP =     2000   TIME(PS) =       4.000  TEMP(K) =   120.49  PRESS =     0.0
 Etot   =         2.0712  EKtot   =         2.1550  EPtot      =         1.9477
 BOND   =         1.2232  ANGLE   =         1.6642  DIHED      =         0.0953
 1-4 NB =         0.3792  1-4 EEL =         0.2217  VDWAALS    =         0.0000
 EELEC  =         0.0030  EHBOND  =         0.0000  RESTRAINT  =         0.0000
 DV/DL  =         0.2238
 ------------------------------------------------------------------------------

      DV/DL, AVERAGES OVER    1000 STEPS

 NSTEP =     2000   TIME(PS) =       4.000  TEMP(K) =   120.49  PRESS =     0.0
 Etot   =         0.0000  EKtot   =         0.0000  EPtot      =        -2.6376
 BOND   =         0.0000  ANGLE   =         0.0000  DIHED      =         0.0000
 1-4 NB =         0.0000  1-4 EEL =       -10.4444  VDWAALS    =         0.0000
 EELEC  =         7.8068  EHBOND  =         0.0000  RESTRAINT  =         0.0000
 DV/DL  =        -2.6376
 ------------------------------------------------------------------------------

      A V E R A G E S   O V E R    1000 S T E P S

 NSTEP =   500000   TIME(PS) =    1000.000  TEMP(K) =   278.34  PRESS =     0.0
 Etot   =        18.5521  EKtot   =         4.9781  EPtot      =        13.5740
 BOND   =         0.8920  ANGLE   =         4.4922  DIHED      =         5.2509
 1-4 NB =         0.3454  1-4 EEL =        10.3283  VDWAALS    =        -0.0001
 EELEC  =        -7.7346  EHBOND  =         0.0000  RESTRAINT  =         0.0000
 DV/DL  =        -2.6177
 ------------------------------------------------------------------------------

      R M S  F L U C T U A T I O N S

 NSTEP =   500000   TIME(PS) =    1000.000  TEMP(K) =    86.87  PRESS =     0.0
 Etot   =         1.7404  EKtot   =         1.5537  EPtot      =         1.0570
 BOND   =         0.6574  ANGLE   =         0.8084  DIHED      =         0.0484
 1-4 NB =         0.2295  1-4 EEL =         0.2017  VDWAALS    =         0.0000
 EELEC  =         0.0032  EHBOND  =         0.0000  RESTRAINT  =         0.0000
 DV/DL  =         0.2035
 ------------------------------------------------------------------------------

      A V E R A G E S   O V E R    1000 S T E P S

 NSTEP =   500000   TIME(PS) =    1000.000  TEMP(K) =   278.34  PRESS =     0.0
 Etot   =        18.5521  EKtot   =         4.9781  EPtot      =        13.5740
 BOND   =         0.8920  ANGLE   =         4.4922  DIHED      =         5.2509
 1-4 NB =         0.3454  1-4 EEL =        10.3283  VDWAALS    =        -0.0001
 EELEC  =        -7.7346  EHBOND  =         0.0000  RESTRAINT  =         0.0000
 DV/DL  =        -2.6177
 ------------------------------------------------------------------------------

      R M S  F L U C T U A T I O N S

 NSTEP =   500000   TIME(PS) =    1000.000  TEMP(K) =    86.87  PRESS =     0.0
 Etot   =         1.7404  EKtot   =         1.5537  EPtot      =         1.0570
 BOND   =         0.6574  ANGLE   =         0.8084  DIHED      =         0.0484
 1-4 NB =         0.2295  1-4 EEL =         0.2017  VDWAALS    =         0.0000
 EELEC  =         0.0032  EHBOND  =         0.0000  RESTRAINT  =         0.0000
 DV/DL  =         0.2035
 ------------------------------------------------------------------------------

      DV/DL, AVERAGES OVER    1000 STEPS

 NSTEP =   500000   TIME(PS) =    1000.000  TEMP(K) =    86.87  PRESS =     0.0
 Etot   =         0.0000  EKtot   =         0.0000  EPtot      =        -2.6177
 BOND   =         0.0000  ANGLE   =         0.0000  DIHED      =         0.0000
 1-4 NB =         0.0000  1-4 EEL =       -10.4244  VDWAALS    =         0.0000
 EELEC  =         7.8066  EHBOND  =         0.0000  RESTRAINT  =         0.0000
 DV/DL  =        -2.6177
 ------------------------------------------------------------------------------

      A V E R A G E S   O V E R  500000 S T E P S

 NSTEP =   500000   TIME(PS) =    1000.000  TEMP(K) =   300.75  PRESS =     0.0
 Etot   =        19.7929  EKtot   =         5.3789  EPtot      =        14.4141
 BOND   =         1.0062  ANGLE   =         5.1756  DIHED      =         5.2770
 1-4 NB =         0.3540  1-4 EEL =        10.3369  VDWAALS    =        -0.0001
 EELEC  =        -7.7355  EHBOND  =         0.0000  RESTRAINT  =         0.0000
 DV/DL  =        -2.6256
 ------------------------------------------------------------------------------

      R M S  F L U C T U A T I O N S

 NSTEP =   500000   TIME(PS) =    1000.000  TEMP(K) =   100.48  PRESS =     0.0
 Etot   =         2.3644  EKtot   =         1.7970  EPtot      =         1.5036
 BOND   =         0.8239  ANGLE   =         1.2212  DIHED      =         0.0855
 1-4 NB =         0.2064  1-4 EEL =         0.1624  VDWAALS    =         0.0000
 EELEC  =         0.0028  EHBOND  =         0.0000  RESTRAINT  =         0.0000
 DV/DL  =         0.1639
 ------------------------------------------------------------------------------

      A V E R A G E S   O V E R  500000 S T E P S

 NSTEP =   500000   TIME(PS) =    1000.000  TEMP(K) =   300.75  PRESS =     0.0
 Etot   =        19.7929  EKtot   =         5.3789  EPtot      =        14.4141
 BOND   =         1.0062  ANGLE   =         5.1756  DIHED      =         5.2770
 1-4 NB =         0.3540  1-4 EEL =        10.3369  VDWAALS    =        -0.0001
 EELEC  =        -7.7355  EHBOND  =         0.0000  RESTRAINT  =         0.0000
 DV/DL  =        -2.6256
 ------------------------------------------------------------------------------

      R M S  F L U C T U A T I O N S

 NSTEP =   500000   TIME(PS) =    1000.000  TEMP(K) =   100.48  PRESS =     0.0
 Etot   =         2.3644  EKtot   =         1.7970  EPtot      =         1.5036
 BOND   =         0.8239  ANGLE   =         1.2212  DIHED      =         0.0855
 1-4 NB =         0.2064  1-4 EEL =         0.1624  VDWAALS    =         0.0000
 EELEC  =         0.0028  EHBOND  =         0.0000  RESTRAINT  =         0.0000
 DV/DL  =         0.1639
 ------------------------------------------------------------------------------

      DV/DL, AVERAGES OVER  500000 STEPS

 NSTEP =   500000   TIME(PS) =    1000.000  TEMP(K) =   100.48  PRESS =     0.0
 Etot   =         0.0000  EKtot   =         0.0000  EPtot      =        -2.6256
 BOND   =         0.0000  ANGLE   =         0.0000  DIHED      =         0.0000
 1-4 NB =         0.0000  1-4 EEL =       -10.4331  VDWAALS    =         0.0000
 EELEC  =         7.8075  EHBOND  =         0.0000  RESTRAINT  =         0.0000
 DV/DL  =        -2.6256
 ------------------------------------------------------------------------------
