-------------------------------------------------------
          Amber 20 PMEMD                              2020
          -------------------------------------------------------

  [-O]verwriting output

File Assignments:

 Here is the input file:

 &cntrl
   nstlim=1000000, nscm=1000,
   ntx=1, irest=0, ntpr=1000,
   tempi=300.0, temp0=300.0, ntt=3, gamma_ln=2.0,
   ntb=1, igb=0, cut=10.0,
   dt=0.001, ig=-1,
   ntc=1, ntf=1,
   iwrap=0,
   ntwr=1000, ntwx=50000, ntave=1000,
   ioutfm=1, ntwv=-1,
   ifsc = 0, icfe=1,
   clambda=0.88495,
   timask1=':1',
   timask2=':2', crgmask = ':2',
/

Note: ig = -1. Setting random seed to   922444 based on wallclock time in
      microseconds.

--------------------------------------------------------------------------------
   1.  RESOURCE   USE:
--------------------------------------------------------------------------------

 getting box info from netcdf restart file
 NATOM  =      14 NTYPES =       6 NBONH =       6 MBONA  =       6
 NTHETH =      12 MTHETA =       6 NPHIH =      24 MPHIA  =       2
 NHPARM =       0 NPARM  =       0 NNB   =      44 NRES   =       2
 NBONA  =       6 NTHETA =       6 NPHIA =       2 NUMBND =       3
 NUMANG =       4 NPTRA  =       3 NATYP =       6 NPHB   =       1
 IFBOX  =       2 NMXRS  =       7 IFCAP =       0 NEXTRA =       0
 NCOPY  =       0

     BOX TYPE: TRUNCATED OCTAHEDRON

--------------------------------------------------------------------------------
   2.  CONTROL  DATA  FOR  THE  RUN
--------------------------------------------------------------------------------

default_name

General flags:
     imin    =       0, nmropt  =       0

Nature and format of input:
     ntx     =       1, irest   =       0, ntrx    =       1

Nature and format of output:
     ntxo    =       2, ntpr    =    1000, ntrx    =       1, ntwr    =    1000
     iwrap   =       0, ntwx    =   50000, ntwv    =      -1, ntwe    =       0
     ioutfm  =       1, ntwprt  =       0, idecomp =       0, rbornstat=      0

Potential function:
     ntf     =       1, ntb     =       1, igb     =       0, nsnb    =      25
     ipol    =       0, gbsa    =       0, iesp    =       0
     dielc   =   1.00000, cut     =  10.00000, intdiel =   1.00000

Frozen or restrained atoms:
     ibelly  =       0, ntr     =       0

Molecular dynamics:
     nstlim  =   1000000, nscm    =      1000, nrespa  =         1
     t       =   0.00000, dt      =   0.00100, vlimit  =  -1.00000

Langevin dynamics temperature regulation:
     ig      =  922444
     temp0   = 300.00000, tempi   = 300.00000, gamma_ln=   2.00000

Free energy options:
     icfe    =       1, ifsc    =       0, klambda =       1
     clambda =  0.8850, scalpha =  0.5000, scbeta  = 12.0000
     sceeorder =       2
     dynlmb =  0.0000 logdvdl =       0

Ewald parameters:
     verbose =       0, ew_type =       0, nbflag  =       1, use_pme =       1
     vdwmeth =       1, eedmeth =       1, netfrc  =       1
     Box X =   66.953   Box Y =   66.953   Box Z =   66.953
     Alpha =  109.471   Beta  =  109.471   Gamma =  109.471
     NFFT1 =   64       NFFT2 =   64       NFFT3 =   64
     Cutoff=   10.000   Tol   =0.100E-04
     Ewald Coefficient =  0.27511
     Interpolation order =    4
     TI Mask 1 :1; matches      7 atoms
     TI Mask 2 :2; matches      7 atoms
     TI region 1:       7 atoms
     TI region 2:       7 atoms
Removing charge of      -0.8188 from atom       8
Removing charge of      -0.8188 from atom       9
Removing charge of       0.8054 from atom      10
Removing charge of      -0.1021 from atom      11
Removing charge of      -0.0219 from atom      12
Removing charge of      -0.0219 from atom      13
Removing charge of      -0.0219 from atom      14
Total charge of  -0.99999900 removed from       7 atoms
     Checking for mismatched coordinates.

--------------------------------------------------------------------------------
   3.  ATOMIC COORDINATES AND VELOCITIES
--------------------------------------------------------------------------------

default_name
 begin time read from input coords =     0.000 ps

 Number of triangulated 3-point waters found:        0

     Sum of charges for TI region  1 =  -0.99999900
     Skip neutralizing charges...

     Sum of charges for TI region  2 =   0.00000000
     Skip neutralizing charges...

--------------------------------------------------------------------------------
   4.  RESULTS
 NSTEP =        0   TIME(PS) =       0.000  TEMP(K) =   172.38  PRESS =     0.0
 Etot   =        12.2304  EKtot   =         3.5967  EPtot      =         8.6337
 BOND   =         0.0132  ANGLE   =         2.7854  DIHED      =         5.2186
 1-4 NB =         0.3127  1-4 EEL =         1.2029  VDWAALS    =        -0.0001
 EELEC  =        -0.8990  EHBOND  =         0.0000  RESTRAINT  =         0.0000
 DV/DL  =        -2.6412
 ------------------------------------------------------------------------------

      A V E R A G E S   O V E R    1000 S T E P S

 NSTEP =     1000   TIME(PS) =       1.000  TEMP(K) =   277.38  PRESS =     0.0
 Etot   =        19.2599  EKtot   =         5.7877  EPtot      =        13.4722
 BOND   =         2.3388  ANGLE   =         5.1229  DIHED      =         5.2971
 1-4 NB =         0.4072  1-4 EEL =         1.2047  VDWAALS    =        -0.0001
 EELEC  =        -0.8984  EHBOND  =         0.0000  RESTRAINT  =         0.0000
 DV/DL  =        -2.6581
 ------------------------------------------------------------------------------

      R M S  F L U C T U A T I O N S

 NSTEP =     1000   TIME(PS) =       1.000  TEMP(K) =   100.10  PRESS =     0.0
 Etot   =         3.4087  EKtot   =         2.0886  EPtot      =         2.2842
 BOND   =         1.4195  ANGLE   =         1.3372  DIHED      =         0.1202
 1-4 NB =         0.1934  1-4 EEL =         0.0156  VDWAALS    =         0.0000
 EELEC  =         0.0003  EHBOND  =         0.0000  RESTRAINT  =         0.0000
 DV/DL  =         0.1585
 ------------------------------------------------------------------------------

      A V E R A G E S   O V E R    1000 S T E P S

 NSTEP =     1000   TIME(PS) =       1.000  TEMP(K) =   277.45  PRESS =     0.0
 Etot   =        19.2614  EKtot   =         5.7892  EPtot      =        13.4722
 BOND   =         2.3388  ANGLE   =         5.1229  DIHED      =         5.2971
 1-4 NB =         0.4072  1-4 EEL =         1.2047  VDWAALS    =        -0.0001
 EELEC  =        -0.8984  EHBOND  =         0.0000  RESTRAINT  =         0.0000
 DV/DL  =        -2.6581
 ------------------------------------------------------------------------------

      R M S  F L U C T U A T I O N S

 NSTEP =     1000   TIME(PS) =       1.000  TEMP(K) =   100.38  PRESS =     0.0
 Etot   =         3.4122  EKtot   =         2.0945  EPtot      =         2.2842
 BOND   =         1.4195  ANGLE   =         1.3372  DIHED      =         0.1202
 1-4 NB =         0.1934  1-4 EEL =         0.0156  VDWAALS    =         0.0000
 EELEC  =         0.0003  EHBOND  =         0.0000  RESTRAINT  =         0.0000
 DV/DL  =         0.1585
 ------------------------------------------------------------------------------

      DV/DL, AVERAGES OVER    1000 STEPS

 NSTEP =     1000   TIME(PS) =       1.000  TEMP(K) =   100.38  PRESS =     0.0
 Etot   =         0.0000  EKtot   =         0.0000  EPtot      =        -2.6581
 BOND   =         0.0049  ANGLE   =        -0.0007  DIHED      =         0.0000
 1-4 NB =        -0.0000  1-4 EEL =       -10.4713  VDWAALS    =         0.0000
 EELEC  =         7.8091  EHBOND  =         0.0000  RESTRAINT  =         0.0000
 DV/DL  =        -2.6581
 ------------------------------------------------------------------------------

      A V E R A G E S   O V E R    1000 S T E P S

 NSTEP =     2000   TIME(PS) =       2.000  TEMP(K) =   330.95  PRESS =     0.0
 Etot   =        19.8423  EKtot   =         6.9054  EPtot      =        12.9369
 BOND   =         1.6270  ANGLE   =         5.3373  DIHED      =         5.2901
 1-4 NB =         0.3770  1-4 EEL =         1.2039  VDWAALS    =        -0.0001
 EELEC  =        -0.8983  EHBOND  =         0.0000  RESTRAINT  =         0.0000
 DV/DL  =        -2.6551
 ------------------------------------------------------------------------------

      R M S  F L U C T U A T I O N S

 NSTEP =     2000   TIME(PS) =       2.000  TEMP(K) =    80.67  PRESS =     0.0
 Etot   =         1.8700  EKtot   =         1.6832  EPtot      =         1.5702
 BOND   =         0.8896  ANGLE   =         1.1971  DIHED      =         0.1027
 1-4 NB =         0.1699  1-4 EEL =         0.0152  VDWAALS    =         0.0000
 EELEC  =         0.0003  EHBOND  =         0.0000  RESTRAINT  =         0.0000
 DV/DL  =         0.1446
 ------------------------------------------------------------------------------

      A V E R A G E S   O V E R    1000 S T E P S

 NSTEP =     2000   TIME(PS) =       2.000  TEMP(K) =   331.01  PRESS =     0.0
 Etot   =        19.8437  EKtot   =         6.9068  EPtot      =        12.9369
 BOND   =         1.6270  ANGLE   =         5.3373  DIHED      =         5.2901
 1-4 NB =         0.3770  1-4 EEL =         1.2039  VDWAALS    =        -0.0001
 EELEC  =        -0.8983  EHBOND  =         0.0000  RESTRAINT  =         0.0000
 DV/DL  =        -2.6551
 ------------------------------------------------------------------------------

      R M S  F L U C T U A T I O N S

 NSTEP =     2000   TIME(PS) =       2.000  TEMP(K) =    80.72  PRESS =     0.0
 Etot   =         1.8743  EKtot   =         1.6843  EPtot      =         1.5702
 BOND   =         0.8896  ANGLE   =         1.1971  DIHED      =         0.1027
 1-4 NB =         0.1699  1-4 EEL =         0.0152  VDWAALS    =         0.0000
 EELEC  =         0.0003  EHBOND  =         0.0000  RESTRAINT  =         0.0000
 DV/DL  =         0.1446
 ------------------------------------------------------------------------------

      DV/DL, AVERAGES OVER    1000 STEPS

 NSTEP =     2000   TIME(PS) =       2.000  TEMP(K) =    80.72  PRESS =     0.0
 Etot   =         0.0000  EKtot   =         0.0000  EPtot      =        -2.6551
 BOND   =         0.0011  ANGLE   =         0.0000  DIHED      =         0.0000
 1-4 NB =         0.0000  1-4 EEL =       -10.4638  VDWAALS    =         0.0000
 EELEC  =         7.8076  EHBOND  =         0.0000  RESTRAINT  =         0.0000
 DV/DL  =        -2.6551
 ------------------------------------------------------------------------------

      A V E R A G E S   O V E R    1000 S T E P S

 NSTEP =  1000000   TIME(PS) =    1000.000  TEMP(K) =   343.56  PRESS =     0.0
 Etot   =        21.6098  EKtot   =         7.1686  EPtot      =        14.4412
 BOND   =         2.8194  ANGLE   =         5.5992  DIHED      =         5.3245
 1-4 NB =         0.3917  1-4 EEL =         1.2049  VDWAALS    =        -0.0001
 EELEC  =        -0.8984  EHBOND  =         0.0000  RESTRAINT  =         0.0000
 DV/DL  =        -2.6686
 ------------------------------------------------------------------------------

      R M S  F L U C T U A T I O N S

 NSTEP =  1000000   TIME(PS) =    1000.000  TEMP(K) =    93.42  PRESS =     0.0
 Etot   =         2.1959  EKtot   =         1.9492  EPtot      =         1.7574
 BOND   =         1.3206  ANGLE   =         1.0869  DIHED      =         0.1153
 1-4 NB =         0.2015  1-4 EEL =         0.0171  VDWAALS    =         0.0000
 EELEC  =         0.0003  EHBOND  =         0.0000  RESTRAINT  =         0.0000
 DV/DL  =         0.1712
 ------------------------------------------------------------------------------

      A V E R A G E S   O V E R    1000 S T E P S

 NSTEP =  1000000   TIME(PS) =    1000.000  TEMP(K) =   343.64  PRESS =     0.0
 Etot   =        21.6114  EKtot   =         7.1702  EPtot      =        14.4412
 BOND   =         2.8194  ANGLE   =         5.5992  DIHED      =         5.3245
 1-4 NB =         0.3917  1-4 EEL =         1.2049  VDWAALS    =        -0.0001
 EELEC  =        -0.8984  EHBOND  =         0.0000  RESTRAINT  =         0.0000
 DV/DL  =        -2.6686
 ------------------------------------------------------------------------------

      R M S  F L U C T U A T I O N S

 NSTEP =  1000000   TIME(PS) =    1000.000  TEMP(K) =    93.43  PRESS =     0.0
 Etot   =         2.1990  EKtot   =         1.9495  EPtot      =         1.7574
 BOND   =         1.3206  ANGLE   =         1.0869  DIHED      =         0.1153
 1-4 NB =         0.2015  1-4 EEL =         0.0171  VDWAALS    =         0.0000
 EELEC  =         0.0003  EHBOND  =         0.0000  RESTRAINT  =         0.0000
 DV/DL  =         0.1712
 ------------------------------------------------------------------------------

      DV/DL, AVERAGES OVER    1000 STEPS

 NSTEP =  1000000   TIME(PS) =    1000.000  TEMP(K) =    93.43  PRESS =     0.0
 Etot   =         0.0000  EKtot   =         0.0000  EPtot      =        -2.6686
 BOND   =        -0.0028  ANGLE   =        -0.0019  DIHED      =        -0.0000
 1-4 NB =         0.0001  1-4 EEL =       -10.4725  VDWAALS    =         0.0000
 EELEC  =         7.8085  EHBOND  =         0.0000  RESTRAINT  =         0.0000
 DV/DL  =        -2.6686
 ------------------------------------------------------------------------------

      A V E R A G E S   O V E R 1000000 S T E P S

 NSTEP =  1000000   TIME(PS) =    1000.000  TEMP(K) =   346.13  PRESS =     0.0
 Etot   =        21.1602  EKtot   =         7.2221  EPtot      =        13.9382
 BOND   =         2.6153  ANGLE   =         5.3373  DIHED      =         5.2800
 1-4 NB =         0.3997  1-4 EEL =         1.2043  VDWAALS    =        -0.0001
 EELEC  =        -0.8983  EHBOND  =         0.0000  RESTRAINT  =         0.0000
 DV/DL  =        -2.6598
 ------------------------------------------------------------------------------

      R M S  F L U C T U A T I O N S

 NSTEP =  1000000   TIME(PS) =    1000.000  TEMP(K) =   106.32  PRESS =     0.0
 Etot   =         2.9659  EKtot   =         2.2185  EPtot      =         2.0412
 BOND   =         1.5207  ANGLE   =         1.3150  DIHED      =         0.0893
 1-4 NB =         0.2302  1-4 EEL =         0.0199  VDWAALS    =         0.0000
 EELEC  =         0.0003  EHBOND  =         0.0000  RESTRAINT  =         0.0000
 DV/DL  =         0.1917
 ------------------------------------------------------------------------------

      A V E R A G E S   O V E R 1000000 S T E P S

 NSTEP =  1000000   TIME(PS) =    1000.000  TEMP(K) =   346.12  PRESS =     0.0
 Etot   =        21.1602  EKtot   =         7.2220  EPtot      =        13.9382
 BOND   =         2.6153  ANGLE   =         5.3373  DIHED      =         5.2800
 1-4 NB =         0.3997  1-4 EEL =         1.2043  VDWAALS    =        -0.0001
 EELEC  =        -0.8983  EHBOND  =         0.0000  RESTRAINT  =         0.0000
 DV/DL  =        -2.6598
 ------------------------------------------------------------------------------

      R M S  F L U C T U A T I O N S

 NSTEP =  1000000   TIME(PS) =    1000.000  TEMP(K) =   106.33  PRESS =     0.0
 Etot   =         2.9660  EKtot   =         2.2185  EPtot      =         2.0412
 BOND   =         1.5207  ANGLE   =         1.3150  DIHED      =         0.0893
 1-4 NB =         0.2302  1-4 EEL =         0.0199  VDWAALS    =         0.0000
 EELEC  =         0.0003  EHBOND  =         0.0000  RESTRAINT  =         0.0000
 DV/DL  =         0.1917
 ------------------------------------------------------------------------------

      DV/DL, AVERAGES OVER 1000000 STEPS

 NSTEP =  1000000   TIME(PS) =    1000.000  TEMP(K) =   106.33  PRESS =     0.0
 Etot   =         0.0000  EKtot   =         0.0000  EPtot      =        -2.6598
 BOND   =         0.0001  ANGLE   =        -0.0000  DIHED      =        -0.0000
 1-4 NB =         0.0000  1-4 EEL =       -10.4675  VDWAALS    =         0.0000
 EELEC  =         7.8076  EHBOND  =         0.0000  RESTRAINT  =         0.0000
 DV/DL  =        -2.6598
 ------------------------------------------------------------------------------
