-------------------------------------------------------
          Amber 20 PMEMD                              2020
          -------------------------------------------------------

  [-O]verwriting output

File Assignments:

 Here is the input file:

 &cntrl
   nstlim=1000000, nscm=1000,
   ntx=1, irest=0, ntpr=1000,
   tempi=300.0, temp0=300.0, ntt=3, gamma_ln=2.0,
   ntb=1, igb=0, cut=10.0,
   dt=0.001, ig=-1,
   ntc=1, ntf=1,
   iwrap=0,
   ntwr=1000, ntwx=50000, ntave=1000,
   ioutfm=1, ntwv=-1,
   ifsc = 0, icfe=1,
   clambda=0.56262,
   timask1=':1',
   timask2=':2', crgmask = ':2',
/

Note: ig = -1. Setting random seed to   915944 based on wallclock time in
      microseconds.

--------------------------------------------------------------------------------
   1.  RESOURCE   USE:
--------------------------------------------------------------------------------

 getting box info from netcdf restart file
 NATOM  =      14 NTYPES =       6 NBONH =       6 MBONA  =       6
 NTHETH =      12 MTHETA =       6 NPHIH =      24 MPHIA  =       2
 NHPARM =       0 NPARM  =       0 NNB   =      44 NRES   =       2
 NBONA  =       6 NTHETA =       6 NPHIA =       2 NUMBND =       3
 NUMANG =       4 NPTRA  =       3 NATYP =       6 NPHB   =       1
 IFBOX  =       2 NMXRS  =       7 IFCAP =       0 NEXTRA =       0
 NCOPY  =       0

     BOX TYPE: TRUNCATED OCTAHEDRON

--------------------------------------------------------------------------------
   2.  CONTROL  DATA  FOR  THE  RUN
--------------------------------------------------------------------------------

default_name

General flags:
     imin    =       0, nmropt  =       0

Nature and format of input:
     ntx     =       1, irest   =       0, ntrx    =       1

Nature and format of output:
     ntxo    =       2, ntpr    =    1000, ntrx    =       1, ntwr    =    1000
     iwrap   =       0, ntwx    =   50000, ntwv    =      -1, ntwe    =       0
     ioutfm  =       1, ntwprt  =       0, idecomp =       0, rbornstat=      0

Potential function:
     ntf     =       1, ntb     =       1, igb     =       0, nsnb    =      25
     ipol    =       0, gbsa    =       0, iesp    =       0
     dielc   =   1.00000, cut     =  10.00000, intdiel =   1.00000

Frozen or restrained atoms:
     ibelly  =       0, ntr     =       0

Molecular dynamics:
     nstlim  =   1000000, nscm    =      1000, nrespa  =         1
     t       =   0.00000, dt      =   0.00100, vlimit  =  -1.00000

Langevin dynamics temperature regulation:
     ig      =  915944
     temp0   = 300.00000, tempi   = 300.00000, gamma_ln=   2.00000

Free energy options:
     icfe    =       1, ifsc    =       0, klambda =       1
     clambda =  0.5626, scalpha =  0.5000, scbeta  = 12.0000
     sceeorder =       2
     dynlmb =  0.0000 logdvdl =       0

Ewald parameters:
     verbose =       0, ew_type =       0, nbflag  =       1, use_pme =       1
     vdwmeth =       1, eedmeth =       1, netfrc  =       1
     Box X =   66.953   Box Y =   66.953   Box Z =   66.953
     Alpha =  109.471   Beta  =  109.471   Gamma =  109.471
     NFFT1 =   64       NFFT2 =   64       NFFT3 =   64
     Cutoff=   10.000   Tol   =0.100E-04
     Ewald Coefficient =  0.27511
     Interpolation order =    4
     TI Mask 1 :1; matches      7 atoms
     TI Mask 2 :2; matches      7 atoms
     TI region 1:       7 atoms
     TI region 2:       7 atoms
Removing charge of      -0.8188 from atom       8
Removing charge of      -0.8188 from atom       9
Removing charge of       0.8054 from atom      10
Removing charge of      -0.1021 from atom      11
Removing charge of      -0.0219 from atom      12
Removing charge of      -0.0219 from atom      13
Removing charge of      -0.0219 from atom      14
Total charge of  -0.99999900 removed from       7 atoms
     Checking for mismatched coordinates.

--------------------------------------------------------------------------------
   3.  ATOMIC COORDINATES AND VELOCITIES
--------------------------------------------------------------------------------

default_name
 begin time read from input coords =     0.000 ps

 Number of triangulated 3-point waters found:        0

     Sum of charges for TI region  1 =  -0.99999900
     Skip neutralizing charges...

     Sum of charges for TI region  2 =   0.00000000
     Skip neutralizing charges...

--------------------------------------------------------------------------------
   4.  RESULTS
 NSTEP =        0   TIME(PS) =       0.000  TEMP(K) =   187.92  PRESS =     0.0
 Etot   =        13.4063  EKtot   =         3.9211  EPtot      =         9.4852
 BOND   =         0.0223  ANGLE   =         2.7971  DIHED      =         5.2197
 1-4 NB =         0.2972  1-4 EEL =         4.5666  VDWAALS    =        -0.0001
 EELEC  =        -3.4175  EHBOND  =         0.0000  RESTRAINT  =         0.0000
 DV/DL  =        -2.6271
 ------------------------------------------------------------------------------

      A V E R A G E S   O V E R    1000 S T E P S

 NSTEP =     1000   TIME(PS) =       1.000  TEMP(K) =   202.55  PRESS =     0.0
 Etot   =        16.7949  EKtot   =         4.2263  EPtot      =        12.5686
 BOND   =         1.2223  ANGLE   =         4.5674  DIHED      =         5.2577
 1-4 NB =         0.3646  1-4 EEL =         4.5716  VDWAALS    =        -0.0001
 EELEC  =        -3.4148  EHBOND  =         0.0000  RESTRAINT  =         0.0000
 DV/DL  =        -2.6452
 ------------------------------------------------------------------------------

      R M S  F L U C T U A T I O N S

 NSTEP =     1000   TIME(PS) =       1.000  TEMP(K) =    76.71  PRESS =     0.0
 Etot   =         2.5250  EKtot   =         1.6006  EPtot      =         1.4174
 BOND   =         0.7442  ANGLE   =         0.9445  DIHED      =         0.0603
 1-4 NB =         0.1510  1-4 EEL =         0.0505  VDWAALS    =         0.0000
 EELEC  =         0.0013  EHBOND  =         0.0000  RESTRAINT  =         0.0000
 DV/DL  =         0.1292
 ------------------------------------------------------------------------------

      A V E R A G E S   O V E R    1000 S T E P S

 NSTEP =     1000   TIME(PS) =       1.000  TEMP(K) =   202.59  PRESS =     0.0
 Etot   =        16.7957  EKtot   =         4.2271  EPtot      =        12.5686
 BOND   =         1.2223  ANGLE   =         4.5674  DIHED      =         5.2577
 1-4 NB =         0.3646  1-4 EEL =         4.5716  VDWAALS    =        -0.0001
 EELEC  =        -3.4148  EHBOND  =         0.0000  RESTRAINT  =         0.0000
 DV/DL  =        -2.6452
 ------------------------------------------------------------------------------

      R M S  F L U C T U A T I O N S

 NSTEP =     1000   TIME(PS) =       1.000  TEMP(K) =    76.90  PRESS =     0.0
 Etot   =         2.5284  EKtot   =         1.6046  EPtot      =         1.4174
 BOND   =         0.7442  ANGLE   =         0.9445  DIHED      =         0.0603
 1-4 NB =         0.1510  1-4 EEL =         0.0505  VDWAALS    =         0.0000
 EELEC  =         0.0013  EHBOND  =         0.0000  RESTRAINT  =         0.0000
 DV/DL  =         0.1292
 ------------------------------------------------------------------------------

      DV/DL, AVERAGES OVER    1000 STEPS

 NSTEP =     1000   TIME(PS) =       1.000  TEMP(K) =    76.90  PRESS =     0.0
 Etot   =         0.0000  EKtot   =         0.0000  EPtot      =        -2.6452
 BOND   =        -0.0010  ANGLE   =         0.0005  DIHED      =        -0.0000
 1-4 NB =        -0.0000  1-4 EEL =       -10.4522  VDWAALS    =         0.0000
 EELEC  =         7.8074  EHBOND  =         0.0000  RESTRAINT  =         0.0000
 DV/DL  =        -2.6452
 ------------------------------------------------------------------------------

      A V E R A G E S   O V E R    1000 S T E P S

 NSTEP =     2000   TIME(PS) =       2.000  TEMP(K) =   323.65  PRESS =     0.0
 Etot   =        21.2569  EKtot   =         6.7532  EPtot      =        14.5037
 BOND   =         2.5846  ANGLE   =         5.1332  DIHED      =         5.2610
 1-4 NB =         0.3714  1-4 EEL =         4.5685  VDWAALS    =        -0.0001
 EELEC  =        -3.4149  EHBOND  =         0.0000  RESTRAINT  =         0.0000
 DV/DL  =        -2.6381
 ------------------------------------------------------------------------------

      R M S  F L U C T U A T I O N S

 NSTEP =     2000   TIME(PS) =       2.000  TEMP(K) =    76.38  PRESS =     0.0
 Etot   =         1.0858  EKtot   =         1.5937  EPtot      =         1.4550
 BOND   =         1.1415  ANGLE   =         1.0982  DIHED      =         0.0483
 1-4 NB =         0.2086  1-4 EEL =         0.0702  VDWAALS    =         0.0000
 EELEC  =         0.0007  EHBOND  =         0.0000  RESTRAINT  =         0.0000
 DV/DL  =         0.1842
 ------------------------------------------------------------------------------

      A V E R A G E S   O V E R    1000 S T E P S

 NSTEP =     2000   TIME(PS) =       2.000  TEMP(K) =   323.53  PRESS =     0.0
 Etot   =        21.2544  EKtot   =         6.7506  EPtot      =        14.5037
 BOND   =         2.5846  ANGLE   =         5.1332  DIHED      =         5.2610
 1-4 NB =         0.3714  1-4 EEL =         4.5685  VDWAALS    =        -0.0001
 EELEC  =        -3.4149  EHBOND  =         0.0000  RESTRAINT  =         0.0000
 DV/DL  =        -2.6381
 ------------------------------------------------------------------------------

      R M S  F L U C T U A T I O N S

 NSTEP =     2000   TIME(PS) =       2.000  TEMP(K) =    76.61  PRESS =     0.0
 Etot   =         1.0923  EKtot   =         1.5985  EPtot      =         1.4550
 BOND   =         1.1415  ANGLE   =         1.0982  DIHED      =         0.0483
 1-4 NB =         0.2086  1-4 EEL =         0.0702  VDWAALS    =         0.0000
 EELEC  =         0.0007  EHBOND  =         0.0000  RESTRAINT  =         0.0000
 DV/DL  =         0.1842
 ------------------------------------------------------------------------------

      DV/DL, AVERAGES OVER    1000 STEPS

 NSTEP =     2000   TIME(PS) =       2.000  TEMP(K) =    76.61  PRESS =     0.0
 Etot   =         0.0000  EKtot   =         0.0000  EPtot      =        -2.6381
 BOND   =        -0.0009  ANGLE   =         0.0005  DIHED      =        -0.0000
 1-4 NB =        -0.0002  1-4 EEL =       -10.4451  VDWAALS    =         0.0000
 EELEC  =         7.8076  EHBOND  =         0.0000  RESTRAINT  =         0.0000
 DV/DL  =        -2.6381
 ------------------------------------------------------------------------------

      A V E R A G E S   O V E R    1000 S T E P S

 NSTEP =  1000000   TIME(PS) =    1000.000  TEMP(K) =   314.73  PRESS =     0.0
 Etot   =        20.9007  EKtot   =         6.5669  EPtot      =        14.3338
 BOND   =         2.8152  ANGLE   =         4.7438  DIHED      =         5.2559
 1-4 NB =         0.3657  1-4 EEL =         4.5686  VDWAALS    =        -0.0001
 EELEC  =        -3.4153  EHBOND  =         0.0000  RESTRAINT  =         0.0000
 DV/DL  =        -2.6386
 ------------------------------------------------------------------------------

      R M S  F L U C T U A T I O N S

 NSTEP =  1000000   TIME(PS) =    1000.000  TEMP(K) =    68.44  PRESS =     0.0
 Etot   =         1.2090  EKtot   =         1.4280  EPtot      =         1.2573
 BOND   =         1.1255  ANGLE   =         0.7531  DIHED      =         0.0561
 1-4 NB =         0.2081  1-4 EEL =         0.0812  VDWAALS    =         0.0000
 EELEC  =         0.0012  EHBOND  =         0.0000  RESTRAINT  =         0.0000
 DV/DL  =         0.2061
 ------------------------------------------------------------------------------

      A V E R A G E S   O V E R    1000 S T E P S

 NSTEP =  1000000   TIME(PS) =    1000.000  TEMP(K) =   314.89  PRESS =     0.0
 Etot   =        20.9041  EKtot   =         6.5703  EPtot      =        14.3338
 BOND   =         2.8152  ANGLE   =         4.7438  DIHED      =         5.2559
 1-4 NB =         0.3657  1-4 EEL =         4.5686  VDWAALS    =        -0.0001
 EELEC  =        -3.4153  EHBOND  =         0.0000  RESTRAINT  =         0.0000
 DV/DL  =        -2.6386
 ------------------------------------------------------------------------------

      R M S  F L U C T U A T I O N S

 NSTEP =  1000000   TIME(PS) =    1000.000  TEMP(K) =    68.91  PRESS =     0.0
 Etot   =         1.2192  EKtot   =         1.4379  EPtot      =         1.2573
 BOND   =         1.1255  ANGLE   =         0.7531  DIHED      =         0.0561
 1-4 NB =         0.2081  1-4 EEL =         0.0812  VDWAALS    =         0.0000
 EELEC  =         0.0012  EHBOND  =         0.0000  RESTRAINT  =         0.0000
 DV/DL  =         0.2061
 ------------------------------------------------------------------------------

      DV/DL, AVERAGES OVER    1000 STEPS

 NSTEP =  1000000   TIME(PS) =    1000.000  TEMP(K) =    68.91  PRESS =     0.0
 Etot   =         0.0000  EKtot   =         0.0000  EPtot      =        -2.6386
 BOND   =         0.0002  ANGLE   =        -0.0019  DIHED      =         0.0000
 1-4 NB =        -0.0001  1-4 EEL =       -10.4453  VDWAALS    =         0.0000
 EELEC  =         7.8086  EHBOND  =         0.0000  RESTRAINT  =         0.0000
 DV/DL  =        -2.6386
 ------------------------------------------------------------------------------

      A V E R A G E S   O V E R 1000000 S T E P S

 NSTEP =  1000000   TIME(PS) =    1000.000  TEMP(K) =   324.57  PRESS =     0.0
 Etot   =        21.0833  EKtot   =         6.7724  EPtot      =        14.3109
 BOND   =         2.2872  ANGLE   =         5.2080  DIHED      =         5.2798
 1-4 NB =         0.3793  1-4 EEL =         4.5717  VDWAALS    =        -0.0001
 EELEC  =        -3.4149  EHBOND  =         0.0000  RESTRAINT  =         0.0000
 DV/DL  =        -2.6447
 ------------------------------------------------------------------------------

      R M S  F L U C T U A T I O N S

 NSTEP =  1000000   TIME(PS) =    1000.000  TEMP(K) =   100.77  PRESS =     0.0
 Etot   =         2.8237  EKtot   =         2.1026  EPtot      =         1.8537
 BOND   =         1.3338  ANGLE   =         1.2417  DIHED      =         0.0885
 1-4 NB =         0.2185  1-4 EEL =         0.0744  VDWAALS    =         0.0000
 EELEC  =         0.0012  EHBOND  =         0.0000  RESTRAINT  =         0.0000
 DV/DL  =         0.1865
 ------------------------------------------------------------------------------

      A V E R A G E S   O V E R 1000000 S T E P S

 NSTEP =  1000000   TIME(PS) =    1000.000  TEMP(K) =   324.57  PRESS =     0.0
 Etot   =        21.0833  EKtot   =         6.7724  EPtot      =        14.3109
 BOND   =         2.2872  ANGLE   =         5.2080  DIHED      =         5.2798
 1-4 NB =         0.3793  1-4 EEL =         4.5717  VDWAALS    =        -0.0001
 EELEC  =        -3.4149  EHBOND  =         0.0000  RESTRAINT  =         0.0000
 DV/DL  =        -2.6447
 ------------------------------------------------------------------------------

      R M S  F L U C T U A T I O N S

 NSTEP =  1000000   TIME(PS) =    1000.000  TEMP(K) =   100.77  PRESS =     0.0
 Etot   =         2.8237  EKtot   =         2.1027  EPtot      =         1.8537
 BOND   =         1.3338  ANGLE   =         1.2417  DIHED      =         0.0885
 1-4 NB =         0.2185  1-4 EEL =         0.0744  VDWAALS    =         0.0000
 EELEC  =         0.0012  EHBOND  =         0.0000  RESTRAINT  =         0.0000
 DV/DL  =         0.1865
 ------------------------------------------------------------------------------

      DV/DL, AVERAGES OVER 1000000 STEPS

 NSTEP =  1000000   TIME(PS) =    1000.000  TEMP(K) =   100.77  PRESS =     0.0
 Etot   =         0.0000  EKtot   =         0.0000  EPtot      =        -2.6447
 BOND   =         0.0001  ANGLE   =        -0.0000  DIHED      =        -0.0000
 1-4 NB =        -0.0000  1-4 EEL =       -10.4524  VDWAALS    =         0.0000
 EELEC  =         7.8076  EHBOND  =         0.0000  RESTRAINT  =         0.0000
 DV/DL  =        -2.6447
 ------------------------------------------------------------------------------
