-------------------------------------------------------
          Amber 20 PMEMD                              2020
          -------------------------------------------------------

  [-O]verwriting output

File Assignments:

 Here is the input file:

 &cntrl
   nstlim=500000, nscm=1000,
   ntx=5, irest=1, ntpr=1000,
   tempi=300.0, temp0=300.0, ntt=3, gamma_ln=2.0,
   ntp=1, pres0=1.01325, taup=5.0,
   ntb=2, igb=0, cut=10.0,
   dt=0.002, ig=-1,
   ntc=2, ntf=2,
   iwrap=0,
   ntwr=1000, ntwx=50000, ntave=1000,
   ioutfm=1, ntwv=-1,
   ifsc = 0, icfe=1,
   clambda=0.31608,
   timask1=':1',
   timask2=':2', crgmask = ':2',
/

Note: ig = -1. Setting random seed to    99878 based on wallclock time in
      microseconds.

--------------------------------------------------------------------------------
   1.  RESOURCE   USE:
--------------------------------------------------------------------------------

 getting box info from netcdf restart file
 NATOM  =   20855 NTYPES =       6 NBONH =   20847 MBONA  =       6
 NTHETH =      12 MTHETA =       6 NPHIH =      24 MPHIA  =       2
 NHPARM =       0 NPARM  =       0 NNB   =   27832 NRES   =    6949
 NBONA  =       6 NTHETA =       6 NPHIA =       2 NUMBND =       5
 NUMANG =       4 NPTRA  =       3 NATYP =       6 NPHB   =       1
 IFBOX  =       2 NMXRS  =       7 IFCAP =       0 NEXTRA =       0
 NCOPY  =       0

     BOX TYPE: TRUNCATED OCTAHEDRON

--------------------------------------------------------------------------------
   2.  CONTROL  DATA  FOR  THE  RUN
--------------------------------------------------------------------------------

default_name

General flags:
     imin    =       0, nmropt  =       0

Nature and format of input:
     ntx     =       5, irest   =       1, ntrx    =       1

Nature and format of output:
     ntxo    =       2, ntpr    =    1000, ntrx    =       1, ntwr    =    1000
     iwrap   =       0, ntwx    =   50000, ntwv    =      -1, ntwe    =       0
     ioutfm  =       1, ntwprt  =       0, idecomp =       0, rbornstat=      0

Potential function:
     ntf     =       2, ntb     =       2, igb     =       0, nsnb    =      25
     ipol    =       0, gbsa    =       0, iesp    =       0
     dielc   =   1.00000, cut     =  10.00000, intdiel =   1.00000

Frozen or restrained atoms:
     ibelly  =       0, ntr     =       0

Molecular dynamics:
     nstlim  =    500000, nscm    =      1000, nrespa  =         1
     t       =   0.00000, dt      =   0.00200, vlimit  =  -1.00000

Langevin dynamics temperature regulation:
     ig      =   99878
     temp0   = 300.00000, tempi   = 300.00000, gamma_ln=   2.00000

Pressure regulation:
     ntp     =       1
     pres0   =   1.01325, comp    =  44.60000, taup    =   5.00000

SHAKE:
     ntc     =       2, jfastw  =       0
     tol     =   0.00001

Free energy options:
     icfe    =       1, ifsc    =       0, klambda =       1
     clambda =  0.3161, scalpha =  0.5000, scbeta  = 12.0000
     sceeorder =       2
     dynlmb =  0.0000 logdvdl =       0

Ewald parameters:
     verbose =       0, ew_type =       0, nbflag  =       1, use_pme =       1
     vdwmeth =       1, eedmeth =       1, netfrc  =       1
     Box X =   66.953   Box Y =   66.953   Box Z =   66.953
     Alpha =  109.471   Beta  =  109.471   Gamma =  109.471
     NFFT1 =   64       NFFT2 =   64       NFFT3 =   64
     Cutoff=   10.000   Tol   =0.100E-04
     Ewald Coefficient =  0.27511
     Interpolation order =    4
     TI Mask 1 :1; matches      7 atoms
     TI Mask 2 :2; matches      7 atoms
     TI region 1:   20848 atoms
     TI region 2:   20848 atoms
Removing charge of      -0.8188 from atom       8
Removing charge of      -0.8188 from atom       9
Removing charge of       0.8054 from atom      10
Removing charge of      -0.1021 from atom      11
Removing charge of      -0.0219 from atom      12
Removing charge of      -0.0219 from atom      13
Removing charge of      -0.0219 from atom      14
Total charge of  -0.99999900 removed from       7 atoms
     Checking for mismatched coordinates.

--------------------------------------------------------------------------------
   3.  ATOMIC COORDINATES AND VELOCITIES
--------------------------------------------------------------------------------

default_name
 begin time read from input coords =   200.000 ps

 Number of triangulated 3-point waters found:     6947

     Sum of charges for TI region  1 =  -0.99999900
     Skip neutralizing charges...

     Sum of charges for TI region  2 =   0.00000000
     Skip neutralizing charges...

--------------------------------------------------------------------------------
   4.  RESULTS
 NSTEP =     1000   TIME(PS) =     202.000  TEMP(K) =   305.23  PRESS =  -978.7
 Etot   =    -52703.1368  EKtot   =     12646.4234  EPtot      =    -65349.5602
 BOND   =         1.2886  ANGLE   =         6.0519  DIHED      =         5.2192
 1-4 NB =         0.0746  1-4 EEL =         7.0074  VDWAALS    =      9289.1012
 EELEC  =    -74658.3030  EHBOND  =         0.0000  RESTRAINT  =         0.0000
 EKCMT  =      6311.3340  VIRIAL  =     11132.5173  VOLUME     =    228161.6295
                                                    Density    =         0.9113
 DV/DL  =       113.9912
 ------------------------------------------------------------------------------

      A V E R A G E S   O V E R    1000 S T E P S

 NSTEP =     1000   TIME(PS) =     202.000  TEMP(K) =   300.77  PRESS =  -702.0
 Etot   =    -52840.7071  EKtot   =     12461.6716  EPtot      =    -65302.3787
 BOND   =         0.7721  ANGLE   =         4.6686  DIHED      =         5.2617
 1-4 NB =         0.3701  1-4 EEL =         7.1463  VDWAALS    =      9641.1984
 EELEC  =    -74961.7960  EHBOND  =         0.0000  RESTRAINT  =         0.0000
 EKCMT  =      6258.3531  VIRIAL  =      9738.3581  VOLUME     =    229555.5401
                                                    Density    =         0.9058
 DV/DL  =       117.8345
 ------------------------------------------------------------------------------

      R M S  F L U C T U A T I O N S

 NSTEP =     1000   TIME(PS) =     202.000  TEMP(K) =     1.76  PRESS =   112.0
 Etot   =        87.7305  EKtot   =        73.0346  EPtot      =        72.9464
 BOND   =         0.5739  ANGLE   =         0.9361  DIHED      =         0.0741
 1-4 NB =         0.1832  1-4 EEL =         0.0958  VDWAALS    =       111.8491
 EELEC  =       149.3968  EHBOND  =         0.0000  RESTRAINT  =         0.0000
 EKCMT  =        47.5543  VIRIAL  =       557.2283  VOLUME     =       813.1079
                                                    Density    =         0.0032
 DV/DL  =         8.8472
 ------------------------------------------------------------------------------

      A V E R A G E S   O V E R    1000 S T E P S

 NSTEP =     1000   TIME(PS) =     202.000  TEMP(K) =   300.77  PRESS =  -702.0
 Etot   =    -52840.7071  EKtot   =     12461.6716  EPtot      =    -65302.3787
 BOND   =         0.7721  ANGLE   =         4.6686  DIHED      =         5.2617
 1-4 NB =         0.3701  1-4 EEL =         7.1463  VDWAALS    =      9641.1984
 EELEC  =    -74961.7960  EHBOND  =         0.0000  RESTRAINT  =         0.0000
 EKCMT  =      6258.3531  VIRIAL  =      9738.3581  VOLUME     =    229555.5401
                                                    Density    =         0.9058
 DV/DL  =       117.8345
 ------------------------------------------------------------------------------

      R M S  F L U C T U A T I O N S

 NSTEP =     1000   TIME(PS) =     202.000  TEMP(K) =     1.76  PRESS =   112.0
 Etot   =        87.7305  EKtot   =        73.0346  EPtot      =        72.9464
 BOND   =         0.5739  ANGLE   =         0.9361  DIHED      =         0.0741
 1-4 NB =         0.1832  1-4 EEL =         0.0958  VDWAALS    =       111.8491
 EELEC  =       149.3968  EHBOND  =         0.0000  RESTRAINT  =         0.0000
 EKCMT  =        47.5543  VIRIAL  =       557.2283  VOLUME     =       813.1079
                                                    Density    =         0.0032
 DV/DL  =         8.8472
 ------------------------------------------------------------------------------

      DV/DL, AVERAGES OVER    1000 STEPS

 NSTEP =     1000   TIME(PS) =     202.000  TEMP(K) =     1.76  PRESS =     0.0
 Etot   =         0.0000  EKtot   =         0.0000  EPtot      =       117.8345
 BOND   =         0.0000  ANGLE   =         0.0000  DIHED      =         0.0000
 1-4 NB =         0.0000  1-4 EEL =       -10.4491  VDWAALS    =         0.0000
 EELEC  =       128.2836  EHBOND  =         0.0000  RESTRAINT  =         0.0000
 EKCMT  =         0.0000  VIRIAL  =         0.0000  VOLUME     =         0.0000
                                                    Density    =         0.0000
 DV/DL  =       117.8345
 ------------------------------------------------------------------------------

      A V E R A G E S   O V E R    1000 S T E P S

 NSTEP =     2000   TIME(PS) =     204.000  TEMP(K) =   300.97  PRESS =  -666.2
 Etot   =    -52899.2119  EKtot   =     12470.0322  EPtot      =    -65369.2441
 BOND   =         0.7516  ANGLE   =         5.2658  DIHED      =         5.2681
 1-4 NB =         0.3828  1-4 EEL =         7.1550  VDWAALS    =      9592.8289
 EELEC  =    -74980.8963  EHBOND  =         0.0000  RESTRAINT  =         0.0000
 EKCMT  =      6245.1790  VIRIAL  =      9507.4254  VOLUME     =    226750.7367
                                                    Density    =         0.9170
 DV/DL  =       115.2100
 ------------------------------------------------------------------------------

      R M S  F L U C T U A T I O N S

 NSTEP =     2000   TIME(PS) =     204.000  TEMP(K) =     1.74  PRESS =   119.9
 Etot   =        89.9488  EKtot   =        71.9455  EPtot      =        95.4797
 BOND   =         0.5736  ANGLE   =         1.0713  DIHED      =         0.0707
 1-4 NB =         0.1948  1-4 EEL =         0.1067  VDWAALS    =       114.3232
 EELEC  =       168.9603  EHBOND  =         0.0000  RESTRAINT  =         0.0000
 EKCMT  =        55.9974  VIRIAL  =       599.5072  VOLUME     =       783.1259
                                                    Density    =         0.0032
 DV/DL  =        10.6229
 ------------------------------------------------------------------------------

      A V E R A G E S   O V E R    1000 S T E P S

 NSTEP =     2000   TIME(PS) =     204.000  TEMP(K) =   300.97  PRESS =  -666.2
 Etot   =    -52899.2119  EKtot   =     12470.0322  EPtot      =    -65369.2441
 BOND   =         0.7516  ANGLE   =         5.2658  DIHED      =         5.2681
 1-4 NB =         0.3828  1-4 EEL =         7.1550  VDWAALS    =      9592.8289
 EELEC  =    -74980.8963  EHBOND  =         0.0000  RESTRAINT  =         0.0000
 EKCMT  =      6245.1790  VIRIAL  =      9507.4254  VOLUME     =    226750.7367
                                                    Density    =         0.9170
 DV/DL  =       115.2100
 ------------------------------------------------------------------------------

      R M S  F L U C T U A T I O N S

 NSTEP =     2000   TIME(PS) =     204.000  TEMP(K) =     1.74  PRESS =   119.9
 Etot   =        89.9488  EKtot   =        71.9455  EPtot      =        95.4797
 BOND   =         0.5736  ANGLE   =         1.0713  DIHED      =         0.0707
 1-4 NB =         0.1948  1-4 EEL =         0.1067  VDWAALS    =       114.3232
 EELEC  =       168.9603  EHBOND  =         0.0000  RESTRAINT  =         0.0000
 EKCMT  =        55.9974  VIRIAL  =       599.5072  VOLUME     =       783.1259
                                                    Density    =         0.0032
 DV/DL  =        10.6229
 ------------------------------------------------------------------------------

      DV/DL, AVERAGES OVER    1000 STEPS

 NSTEP =     2000   TIME(PS) =     204.000  TEMP(K) =     1.74  PRESS =     0.0
 Etot   =         0.0000  EKtot   =         0.0000  EPtot      =       115.2100
 BOND   =         0.0000  ANGLE   =         0.0000  DIHED      =         0.0000
 1-4 NB =         0.0000  1-4 EEL =       -10.4618  VDWAALS    =         0.0000
 EELEC  =       125.6718  EHBOND  =         0.0000  RESTRAINT  =         0.0000
 EKCMT  =         0.0000  VIRIAL  =         0.0000  VOLUME     =         0.0000
                                                    Density    =         0.0000
 DV/DL  =       115.2100
 ------------------------------------------------------------------------------

      A V E R A G E S   O V E R    1000 S T E P S

 NSTEP =   500000   TIME(PS) =    1200.000  TEMP(K) =   301.11  PRESS =    -0.1
 Etot   =    -53784.8592  EKtot   =     12475.7379  EPtot      =    -66260.5970
 BOND   =         0.9291  ANGLE   =         5.4286  DIHED      =         5.2883
 1-4 NB =         0.3703  1-4 EEL =         7.1481  VDWAALS    =      9886.6411
 EELEC  =    -76166.4026  EHBOND  =         0.0000  RESTRAINT  =         0.0000
 EKCMT  =      6252.9695  VIRIAL  =      6253.2092  VOLUME     =    211438.1707
                                                    Density    =         0.9834
 DV/DL  =       116.4155
 ------------------------------------------------------------------------------

      R M S  F L U C T U A T I O N S

 NSTEP =   500000   TIME(PS) =    1200.000  TEMP(K) =     2.37  PRESS =   114.8
 Etot   =       144.7759  EKtot   =        98.3757  EPtot      =        90.2438
 BOND   =         0.7044  ANGLE   =         1.3695  DIHED      =         0.0946
 1-4 NB =         0.2056  1-4 EEL =         0.1064  VDWAALS    =       100.2511
 EELEC  =       136.2302  EHBOND  =         0.0000  RESTRAINT  =         0.0000
 EKCMT  =        63.3514  VIRIAL  =       516.0657  VOLUME     =        27.3114
                                                    Density    =         0.0001
 DV/DL  =        11.7842
 ------------------------------------------------------------------------------

      A V E R A G E S   O V E R    1000 S T E P S

 NSTEP =   500000   TIME(PS) =    1200.000  TEMP(K) =   301.11  PRESS =    -0.1
 Etot   =    -53784.8592  EKtot   =     12475.7379  EPtot      =    -66260.5970
 BOND   =         0.9291  ANGLE   =         5.4286  DIHED      =         5.2883
 1-4 NB =         0.3703  1-4 EEL =         7.1481  VDWAALS    =      9886.6411
 EELEC  =    -76166.4026  EHBOND  =         0.0000  RESTRAINT  =         0.0000
 EKCMT  =      6252.9695  VIRIAL  =      6253.2092  VOLUME     =    211438.1707
                                                    Density    =         0.9834
 DV/DL  =       116.4155
 ------------------------------------------------------------------------------

      R M S  F L U C T U A T I O N S

 NSTEP =   500000   TIME(PS) =    1200.000  TEMP(K) =     2.37  PRESS =   114.8
 Etot   =       144.7759  EKtot   =        98.3757  EPtot      =        90.2438
 BOND   =         0.7044  ANGLE   =         1.3695  DIHED      =         0.0946
 1-4 NB =         0.2056  1-4 EEL =         0.1064  VDWAALS    =       100.2511
 EELEC  =       136.2302  EHBOND  =         0.0000  RESTRAINT  =         0.0000
 EKCMT  =        63.3514  VIRIAL  =       516.0657  VOLUME     =        27.3114
                                                    Density    =         0.0001
 DV/DL  =        11.7842
 ------------------------------------------------------------------------------

      DV/DL, AVERAGES OVER    1000 STEPS

 NSTEP =   500000   TIME(PS) =    1200.000  TEMP(K) =     2.37  PRESS =     0.0
 Etot   =         0.0000  EKtot   =         0.0000  EPtot      =       116.4155
 BOND   =         0.0000  ANGLE   =         0.0000  DIHED      =         0.0000
 1-4 NB =         0.0000  1-4 EEL =       -10.4517  VDWAALS    =         0.0000
 EELEC  =       126.8673  EHBOND  =         0.0000  RESTRAINT  =         0.0000
 EKCMT  =         0.0000  VIRIAL  =         0.0000  VOLUME     =         0.0000
                                                    Density    =         0.0000
 DV/DL  =       116.4155
 ------------------------------------------------------------------------------

      A V E R A G E S   O V E R  500000 S T E P S

 NSTEP =   500000   TIME(PS) =    1200.000  TEMP(K) =   300.10  PRESS =    -8.9
 Etot   =    -53852.4827  EKtot   =     12434.0331  EPtot      =    -66286.5158
 BOND   =         0.9580  ANGLE   =         5.1955  DIHED      =         5.2832
 1-4 NB =         0.3834  1-4 EEL =         7.1519  VDWAALS    =      9912.1724
 EELEC  =    -76217.6602  EHBOND  =         0.0000  RESTRAINT  =         0.0000
 EKCMT  =      6235.8130  VIRIAL  =      6278.7077  VOLUME     =    211765.9707
                                                    Density    =         0.9819
 DV/DL  =       114.6939
 ------------------------------------------------------------------------------

      R M S  F L U C T U A T I O N S

 NSTEP =   500000   TIME(PS) =    1200.000  TEMP(K) =     2.07  PRESS =   145.3
 Etot   =       172.3966  EKtot   =        85.7616  EPtot      =       147.0841
 BOND   =         0.7835  ANGLE   =         1.2316  DIHED      =         0.0931
 1-4 NB =         0.2215  1-4 EEL =         0.1136  VDWAALS    =       128.4920
 EELEC  =       224.7432  EHBOND  =         0.0000  RESTRAINT  =         0.0000
 EKCMT  =        60.7095  VIRIAL  =       670.3150  VOLUME     =      1490.3316
                                                    Density    =         0.0065
 DV/DL  =        10.4358
 ------------------------------------------------------------------------------

      A V E R A G E S   O V E R  500000 S T E P S

 NSTEP =   500000   TIME(PS) =    1200.000  TEMP(K) =   300.10  PRESS =    -8.9
 Etot   =    -53852.4827  EKtot   =     12434.0331  EPtot      =    -66286.5158
 BOND   =         0.9580  ANGLE   =         5.1955  DIHED      =         5.2832
 1-4 NB =         0.3834  1-4 EEL =         7.1519  VDWAALS    =      9912.1724
 EELEC  =    -76217.6602  EHBOND  =         0.0000  RESTRAINT  =         0.0000
 EKCMT  =      6235.8130  VIRIAL  =      6278.7077  VOLUME     =    211765.9707
                                                    Density    =         0.9819
 DV/DL  =       114.6939
 ------------------------------------------------------------------------------

      R M S  F L U C T U A T I O N S

 NSTEP =   500000   TIME(PS) =    1200.000  TEMP(K) =     2.07  PRESS =   145.3
 Etot   =       172.3966  EKtot   =        85.7616  EPtot      =       147.0841
 BOND   =         0.7835  ANGLE   =         1.2316  DIHED      =         0.0931
 1-4 NB =         0.2215  1-4 EEL =         0.1136  VDWAALS    =       128.4920
 EELEC  =       224.7432  EHBOND  =         0.0000  RESTRAINT  =         0.0000
 EKCMT  =        60.7095  VIRIAL  =       670.3150  VOLUME     =      1490.3316
                                                    Density    =         0.0065
 DV/DL  =        10.4358
 ------------------------------------------------------------------------------

      DV/DL, AVERAGES OVER  500000 STEPS

 NSTEP =   500000   TIME(PS) =    1200.000  TEMP(K) =     2.07  PRESS =     0.0
 Etot   =         0.0000  EKtot   =         0.0000  EPtot      =       114.6939
 BOND   =         0.0000  ANGLE   =         0.0000  DIHED      =         0.0000
 1-4 NB =         0.0000  1-4 EEL =       -10.4573  VDWAALS    =         0.0000
 EELEC  =       125.1512  EHBOND  =         0.0000  RESTRAINT  =         0.0000
 EKCMT  =         0.0000  VIRIAL  =         0.0000  VOLUME     =         0.0000
                                                    Density    =         0.0000
 DV/DL  =       114.6939
 ------------------------------------------------------------------------------
