-------------------------------------------------------
          Amber 20 PMEMD                              2020
          -------------------------------------------------------

  [-O]verwriting output

File Assignments:

 Here is the input file:

 &cntrl
   nstlim=500000, nscm=1000,
   ntx=1, irest=0, ntpr=1000,
   tempi=300.0, temp0=300.0, ntt=3, gamma_ln=2.0,

   ntb=1, igb=0, cut=10.0,
   dt=0.002, ig=-1,
   ntc=2, ntf=2,
   iwrap=0,
   ntwr=1000, ntwx=50000, ntave=1000,
   ioutfm=1, ntwv=-1,
   ifsc = 0, icfe=1,
   clambda=0.95206,
   timask1=':1',
   timask2=':2', crgmask = ':2',
/

Note: ig = -1. Setting random seed to   528279 based on wallclock time in
      microseconds.

--------------------------------------------------------------------------------
   1.  RESOURCE   USE:
--------------------------------------------------------------------------------

 getting box info from netcdf restart file
 NATOM  =      14 NTYPES =       6 NBONH =       6 MBONA  =       6
 NTHETH =      12 MTHETA =       6 NPHIH =      24 MPHIA  =       2
 NHPARM =       0 NPARM  =       0 NNB   =      44 NRES   =       2
 NBONA  =       6 NTHETA =       6 NPHIA =       2 NUMBND =       3
 NUMANG =       4 NPTRA  =       3 NATYP =       6 NPHB   =       1
 IFBOX  =       2 NMXRS  =       7 IFCAP =       0 NEXTRA =       0
 NCOPY  =       0

     BOX TYPE: TRUNCATED OCTAHEDRON

--------------------------------------------------------------------------------
   2.  CONTROL  DATA  FOR  THE  RUN
--------------------------------------------------------------------------------

default_name

General flags:
     imin    =       0, nmropt  =       0

Nature and format of input:
     ntx     =       1, irest   =       0, ntrx    =       1

Nature and format of output:
     ntxo    =       2, ntpr    =    1000, ntrx    =       1, ntwr    =    1000
     iwrap   =       0, ntwx    =   50000, ntwv    =      -1, ntwe    =       0
     ioutfm  =       1, ntwprt  =       0, idecomp =       0, rbornstat=      0

Potential function:
     ntf     =       2, ntb     =       1, igb     =       0, nsnb    =      25
     ipol    =       0, gbsa    =       0, iesp    =       0
     dielc   =   1.00000, cut     =  10.00000, intdiel =   1.00000

Frozen or restrained atoms:
     ibelly  =       0, ntr     =       0

Molecular dynamics:
     nstlim  =    500000, nscm    =      1000, nrespa  =         1
     t       =   0.00000, dt      =   0.00200, vlimit  =  -1.00000

Langevin dynamics temperature regulation:
     ig      =  528279
     temp0   = 300.00000, tempi   = 300.00000, gamma_ln=   2.00000

SHAKE:
     ntc     =       2, jfastw  =       0
     tol     =   0.00001

Free energy options:
     icfe    =       1, ifsc    =       0, klambda =       1
     clambda =  0.9521, scalpha =  0.5000, scbeta  = 12.0000
     sceeorder =       2
     dynlmb =  0.0000 logdvdl =       0

Ewald parameters:
     verbose =       0, ew_type =       0, nbflag  =       1, use_pme =       1
     vdwmeth =       1, eedmeth =       1, netfrc  =       1
     Box X =   66.953   Box Y =   66.953   Box Z =   66.953
     Alpha =  109.471   Beta  =  109.471   Gamma =  109.471
     NFFT1 =   64       NFFT2 =   64       NFFT3 =   64
     Cutoff=   10.000   Tol   =0.100E-04
     Ewald Coefficient =  0.27511
     Interpolation order =    4
     TI Mask 1 :1; matches      7 atoms
     TI Mask 2 :2; matches      7 atoms
     TI region 1:       7 atoms
     TI region 2:       7 atoms
Removing charge of      -0.8188 from atom       8
Removing charge of      -0.8188 from atom       9
Removing charge of       0.8054 from atom      10
Removing charge of      -0.1021 from atom      11
Removing charge of      -0.0219 from atom      12
Removing charge of      -0.0219 from atom      13
Removing charge of      -0.0219 from atom      14
Total charge of  -0.99999900 removed from       7 atoms
     Checking for mismatched coordinates.

--------------------------------------------------------------------------------
   3.  ATOMIC COORDINATES AND VELOCITIES
--------------------------------------------------------------------------------

default_name
 begin time read from input coords =     0.000 ps

 Number of triangulated 3-point waters found:        0

     Sum of charges for TI region  1 =  -0.99999900
     Skip neutralizing charges...

     Sum of charges for TI region  2 =   0.00000000
     Skip neutralizing charges...

--------------------------------------------------------------------------------
   4.  RESULTS
 NSTEP =        0   TIME(PS) =       0.000  TEMP(K) =   354.14  PRESS =     0.0
 Etot   =        14.7938  EKtot   =         6.3337  EPtot      =         8.4601
 BOND   =         0.0103  ANGLE   =         2.7859  DIHED      =         5.2200
 1-4 NB =         0.3168  1-4 EEL =         0.5015  VDWAALS    =        -0.0001
 EELEC  =        -0.3742  EHBOND  =         0.0000  RESTRAINT  =         0.0000
 DV/DL  =        -2.6551
 ------------------------------------------------------------------------------

      A V E R A G E S   O V E R    1000 S T E P S

 NSTEP =     1000   TIME(PS) =       2.000  TEMP(K) =   232.71  PRESS =     0.0
 Etot   =        15.3361  EKtot   =         4.1619  EPtot      =        11.1742
 BOND   =         0.8192  ANGLE   =         4.5660  DIHED      =         5.2660
 1-4 NB =         0.3955  1-4 EEL =         0.5020  VDWAALS    =        -0.0001
 EELEC  =        -0.3742  EHBOND  =         0.0000  RESTRAINT  =         0.0000
 DV/DL  =        -2.6638
 ------------------------------------------------------------------------------

      R M S  F L U C T U A T I O N S

 NSTEP =     1000   TIME(PS) =       2.000  TEMP(K) =    61.70  PRESS =     0.0
 Etot   =         0.9715  EKtot   =         1.1035  EPtot      =         1.0028
 BOND   =         0.5977  ANGLE   =         0.8736  DIHED      =         0.0765
 1-4 NB =         0.1937  1-4 EEL =         0.0072  VDWAALS    =         0.0000
 EELEC  =         0.0001  EHBOND  =         0.0000  RESTRAINT  =         0.0000
 DV/DL  =         0.1504
 ------------------------------------------------------------------------------

      A V E R A G E S   O V E R    1000 S T E P S

 NSTEP =     1000   TIME(PS) =       2.000  TEMP(K) =   232.71  PRESS =     0.0
 Etot   =        15.3361  EKtot   =         4.1619  EPtot      =        11.1742
 BOND   =         0.8192  ANGLE   =         4.5660  DIHED      =         5.2660
 1-4 NB =         0.3955  1-4 EEL =         0.5020  VDWAALS    =        -0.0001
 EELEC  =        -0.3742  EHBOND  =         0.0000  RESTRAINT  =         0.0000
 DV/DL  =        -2.6638
 ------------------------------------------------------------------------------

      R M S  F L U C T U A T I O N S

 NSTEP =     1000   TIME(PS) =       2.000  TEMP(K) =    61.70  PRESS =     0.0
 Etot   =         0.9715  EKtot   =         1.1035  EPtot      =         1.0028
 BOND   =         0.5977  ANGLE   =         0.8736  DIHED      =         0.0765
 1-4 NB =         0.1937  1-4 EEL =         0.0072  VDWAALS    =         0.0000
 EELEC  =         0.0001  EHBOND  =         0.0000  RESTRAINT  =         0.0000
 DV/DL  =         0.1504
 ------------------------------------------------------------------------------

      DV/DL, AVERAGES OVER    1000 STEPS

 NSTEP =     1000   TIME(PS) =       2.000  TEMP(K) =    61.70  PRESS =     0.0
 Etot   =         0.0000  EKtot   =         0.0000  EPtot      =        -2.6638
 BOND   =         0.0000  ANGLE   =         0.0000  DIHED      =         0.0000
 1-4 NB =         0.0000  1-4 EEL =       -10.4704  VDWAALS    =         0.0000
 EELEC  =         7.8066  EHBOND  =         0.0000  RESTRAINT  =         0.0000
 DV/DL  =        -2.6638
 ------------------------------------------------------------------------------

      A V E R A G E S   O V E R    1000 S T E P S

 NSTEP =     2000   TIME(PS) =       4.000  TEMP(K) =   263.66  PRESS =     0.0
 Etot   =        16.0778  EKtot   =         4.7154  EPtot      =        11.3624
 BOND   =         1.0114  ANGLE   =         4.5712  DIHED      =         5.2701
 1-4 NB =         0.3822  1-4 EEL =         0.5019  VDWAALS    =        -0.0001
 EELEC  =        -0.3742  EHBOND  =         0.0000  RESTRAINT  =         0.0000
 DV/DL  =        -2.6623
 ------------------------------------------------------------------------------

      R M S  F L U C T U A T I O N S

 NSTEP =     2000   TIME(PS) =       4.000  TEMP(K) =    79.21  PRESS =     0.0
 Etot   =         1.5957  EKtot   =         1.4167  EPtot      =         0.9886
 BOND   =         0.6912  ANGLE   =         0.7854  DIHED      =         0.0674
 1-4 NB =         0.2270  1-4 EEL =         0.0091  VDWAALS    =         0.0000
 EELEC  =         0.0001  EHBOND  =         0.0000  RESTRAINT  =         0.0000
 DV/DL  =         0.1895
 ------------------------------------------------------------------------------

      A V E R A G E S   O V E R    1000 S T E P S

 NSTEP =     2000   TIME(PS) =       4.000  TEMP(K) =   263.66  PRESS =     0.0
 Etot   =        16.0778  EKtot   =         4.7154  EPtot      =        11.3624
 BOND   =         1.0114  ANGLE   =         4.5712  DIHED      =         5.2701
 1-4 NB =         0.3822  1-4 EEL =         0.5019  VDWAALS    =        -0.0001
 EELEC  =        -0.3742  EHBOND  =         0.0000  RESTRAINT  =         0.0000
 DV/DL  =        -2.6623
 ------------------------------------------------------------------------------

      R M S  F L U C T U A T I O N S

 NSTEP =     2000   TIME(PS) =       4.000  TEMP(K) =    79.21  PRESS =     0.0
 Etot   =         1.5957  EKtot   =         1.4167  EPtot      =         0.9886
 BOND   =         0.6912  ANGLE   =         0.7854  DIHED      =         0.0674
 1-4 NB =         0.2270  1-4 EEL =         0.0091  VDWAALS    =         0.0000
 EELEC  =         0.0001  EHBOND  =         0.0000  RESTRAINT  =         0.0000
 DV/DL  =         0.1895
 ------------------------------------------------------------------------------

      DV/DL, AVERAGES OVER    1000 STEPS

 NSTEP =     2000   TIME(PS) =       4.000  TEMP(K) =    79.21  PRESS =     0.0
 Etot   =         0.0000  EKtot   =         0.0000  EPtot      =        -2.6623
 BOND   =         0.0000  ANGLE   =         0.0000  DIHED      =         0.0000
 1-4 NB =         0.0000  1-4 EEL =       -10.4688  VDWAALS    =         0.0000
 EELEC  =         7.8065  EHBOND  =         0.0000  RESTRAINT  =         0.0000
 DV/DL  =        -2.6623
 ------------------------------------------------------------------------------

      A V E R A G E S   O V E R    1000 S T E P S

 NSTEP =   500000   TIME(PS) =    1000.000  TEMP(K) =   325.66  PRESS =     0.0
 Etot   =        18.7603  EKtot   =         5.8243  EPtot      =        12.9360
 BOND   =         0.6780  ANGLE   =         6.4182  DIHED      =         5.2788
 1-4 NB =         0.4332  1-4 EEL =         0.5022  VDWAALS    =        -0.0001
 EELEC  =        -0.3742  EHBOND  =         0.0000  RESTRAINT  =         0.0000
 DV/DL  =        -2.6698
 ------------------------------------------------------------------------------

      R M S  F L U C T U A T I O N S

 NSTEP =   500000   TIME(PS) =    1000.000  TEMP(K) =   108.36  PRESS =     0.0
 Etot   =         2.4817  EKtot   =         1.9380  EPtot      =         1.9462
 BOND   =         0.5910  ANGLE   =         1.7489  DIHED      =         0.0686
 1-4 NB =         0.2275  1-4 EEL =         0.0064  VDWAALS    =         0.0000
 EELEC  =         0.0001  EHBOND  =         0.0000  RESTRAINT  =         0.0000
 DV/DL  =         0.1338
 ------------------------------------------------------------------------------

      A V E R A G E S   O V E R    1000 S T E P S

 NSTEP =   500000   TIME(PS) =    1000.000  TEMP(K) =   325.66  PRESS =     0.0
 Etot   =        18.7603  EKtot   =         5.8243  EPtot      =        12.9360
 BOND   =         0.6780  ANGLE   =         6.4182  DIHED      =         5.2788
 1-4 NB =         0.4332  1-4 EEL =         0.5022  VDWAALS    =        -0.0001
 EELEC  =        -0.3742  EHBOND  =         0.0000  RESTRAINT  =         0.0000
 DV/DL  =        -2.6698
 ------------------------------------------------------------------------------

      R M S  F L U C T U A T I O N S

 NSTEP =   500000   TIME(PS) =    1000.000  TEMP(K) =   108.36  PRESS =     0.0
 Etot   =         2.4817  EKtot   =         1.9380  EPtot      =         1.9462
 BOND   =         0.5910  ANGLE   =         1.7489  DIHED      =         0.0686
 1-4 NB =         0.2275  1-4 EEL =         0.0064  VDWAALS    =         0.0000
 EELEC  =         0.0001  EHBOND  =         0.0000  RESTRAINT  =         0.0000
 DV/DL  =         0.1338
 ------------------------------------------------------------------------------

      DV/DL, AVERAGES OVER    1000 STEPS

 NSTEP =   500000   TIME(PS) =    1000.000  TEMP(K) =   108.36  PRESS =     0.0
 Etot   =         0.0000  EKtot   =         0.0000  EPtot      =        -2.6698
 BOND   =         0.0000  ANGLE   =         0.0000  DIHED      =         0.0000
 1-4 NB =         0.0000  1-4 EEL =       -10.4761  VDWAALS    =         0.0000
 EELEC  =         7.8063  EHBOND  =         0.0000  RESTRAINT  =         0.0000
 DV/DL  =        -2.6698
 ------------------------------------------------------------------------------

      A V E R A G E S   O V E R  500000 S T E P S

 NSTEP =   500000   TIME(PS) =    1000.000  TEMP(K) =   300.99  PRESS =     0.0
 Etot   =        17.2764  EKtot   =         5.3831  EPtot      =        11.8933
 BOND   =         0.9554  ANGLE   =         5.1325  DIHED      =         5.2788
 1-4 NB =         0.3989  1-4 EEL =         0.5021  VDWAALS    =        -0.0001
 EELEC  =        -0.3743  EHBOND  =         0.0000  RESTRAINT  =         0.0000
 DV/DL  =        -2.6665
 ------------------------------------------------------------------------------

      R M S  F L U C T U A T I O N S

 NSTEP =   500000   TIME(PS) =    1000.000  TEMP(K) =   100.61  PRESS =     0.0
 Etot   =         2.3249  EKtot   =         1.7993  EPtot      =         1.4658
 BOND   =         0.7832  ANGLE   =         1.1915  DIHED      =         0.0864
 1-4 NB =         0.2229  1-4 EEL =         0.0080  VDWAALS    =         0.0000
 EELEC  =         0.0001  EHBOND  =         0.0000  RESTRAINT  =         0.0000
 DV/DL  =         0.1659
 ------------------------------------------------------------------------------

      A V E R A G E S   O V E R  500000 S T E P S

 NSTEP =   500000   TIME(PS) =    1000.000  TEMP(K) =   300.99  PRESS =     0.0
 Etot   =        17.2764  EKtot   =         5.3831  EPtot      =        11.8933
 BOND   =         0.9554  ANGLE   =         5.1325  DIHED      =         5.2788
 1-4 NB =         0.3989  1-4 EEL =         0.5021  VDWAALS    =        -0.0001
 EELEC  =        -0.3743  EHBOND  =         0.0000  RESTRAINT  =         0.0000
 DV/DL  =        -2.6665
 ------------------------------------------------------------------------------

      R M S  F L U C T U A T I O N S

 NSTEP =   500000   TIME(PS) =    1000.000  TEMP(K) =   100.61  PRESS =     0.0
 Etot   =         2.3249  EKtot   =         1.7993  EPtot      =         1.4658
 BOND   =         0.7832  ANGLE   =         1.1915  DIHED      =         0.0864
 1-4 NB =         0.2229  1-4 EEL =         0.0080  VDWAALS    =         0.0000
 EELEC  =         0.0001  EHBOND  =         0.0000  RESTRAINT  =         0.0000
 DV/DL  =         0.1659
 ------------------------------------------------------------------------------

      DV/DL, AVERAGES OVER  500000 STEPS

 NSTEP =   500000   TIME(PS) =    1000.000  TEMP(K) =   100.61  PRESS =     0.0
 Etot   =         0.0000  EKtot   =         0.0000  EPtot      =        -2.6665
 BOND   =         0.0000  ANGLE   =         0.0000  DIHED      =         0.0000
 1-4 NB =         0.0000  1-4 EEL =       -10.4741  VDWAALS    =         0.0000
 EELEC  =         7.8076  EHBOND  =         0.0000  RESTRAINT  =         0.0000
 DV/DL  =        -2.6665
 ------------------------------------------------------------------------------
