-------------------------------------------------------
          Amber 20 PMEMD                              2020
          -------------------------------------------------------

  [-O]verwriting output

File Assignments:

 Here is the input file:

 &cntrl
   nstlim=500000, nscm=1000,
   ntx=1, irest=0, ntpr=1000,
   tempi=300.0, temp0=300.0, ntt=3, gamma_ln=2.0,

   ntb=1, igb=0, cut=10.0,
   dt=0.002, ig=-1,
   ntc=2, ntf=2,
   iwrap=0,
   ntwr=1000, ntwx=50000, ntave=1000,
   ioutfm=1, ntwv=-1,
   ifsc = 0, icfe=1,
   clambda=0.31608,
   timask1=':1',
   timask2=':2', crgmask = ':2',
/

Note: ig = -1. Setting random seed to   318248 based on wallclock time in
      microseconds.

--------------------------------------------------------------------------------
   1.  RESOURCE   USE:
--------------------------------------------------------------------------------

 getting box info from netcdf restart file
 NATOM  =      14 NTYPES =       6 NBONH =       6 MBONA  =       6
 NTHETH =      12 MTHETA =       6 NPHIH =      24 MPHIA  =       2
 NHPARM =       0 NPARM  =       0 NNB   =      44 NRES   =       2
 NBONA  =       6 NTHETA =       6 NPHIA =       2 NUMBND =       3
 NUMANG =       4 NPTRA  =       3 NATYP =       6 NPHB   =       1
 IFBOX  =       2 NMXRS  =       7 IFCAP =       0 NEXTRA =       0
 NCOPY  =       0

     BOX TYPE: TRUNCATED OCTAHEDRON

--------------------------------------------------------------------------------
   2.  CONTROL  DATA  FOR  THE  RUN
--------------------------------------------------------------------------------

default_name

General flags:
     imin    =       0, nmropt  =       0

Nature and format of input:
     ntx     =       1, irest   =       0, ntrx    =       1

Nature and format of output:
     ntxo    =       2, ntpr    =    1000, ntrx    =       1, ntwr    =    1000
     iwrap   =       0, ntwx    =   50000, ntwv    =      -1, ntwe    =       0
     ioutfm  =       1, ntwprt  =       0, idecomp =       0, rbornstat=      0

Potential function:
     ntf     =       2, ntb     =       1, igb     =       0, nsnb    =      25
     ipol    =       0, gbsa    =       0, iesp    =       0
     dielc   =   1.00000, cut     =  10.00000, intdiel =   1.00000

Frozen or restrained atoms:
     ibelly  =       0, ntr     =       0

Molecular dynamics:
     nstlim  =    500000, nscm    =      1000, nrespa  =         1
     t       =   0.00000, dt      =   0.00200, vlimit  =  -1.00000

Langevin dynamics temperature regulation:
     ig      =  318248
     temp0   = 300.00000, tempi   = 300.00000, gamma_ln=   2.00000

SHAKE:
     ntc     =       2, jfastw  =       0
     tol     =   0.00001

Free energy options:
     icfe    =       1, ifsc    =       0, klambda =       1
     clambda =  0.3161, scalpha =  0.5000, scbeta  = 12.0000
     sceeorder =       2
     dynlmb =  0.0000 logdvdl =       0

Ewald parameters:
     verbose =       0, ew_type =       0, nbflag  =       1, use_pme =       1
     vdwmeth =       1, eedmeth =       1, netfrc  =       1
     Box X =   66.953   Box Y =   66.953   Box Z =   66.953
     Alpha =  109.471   Beta  =  109.471   Gamma =  109.471
     NFFT1 =   64       NFFT2 =   64       NFFT3 =   64
     Cutoff=   10.000   Tol   =0.100E-04
     Ewald Coefficient =  0.27511
     Interpolation order =    4
     TI Mask 1 :1; matches      7 atoms
     TI Mask 2 :2; matches      7 atoms
     TI region 1:       7 atoms
     TI region 2:       7 atoms
Removing charge of      -0.8188 from atom       8
Removing charge of      -0.8188 from atom       9
Removing charge of       0.8054 from atom      10
Removing charge of      -0.1021 from atom      11
Removing charge of      -0.0219 from atom      12
Removing charge of      -0.0219 from atom      13
Removing charge of      -0.0219 from atom      14
Total charge of  -0.99999900 removed from       7 atoms
     Checking for mismatched coordinates.

--------------------------------------------------------------------------------
   3.  ATOMIC COORDINATES AND VELOCITIES
--------------------------------------------------------------------------------

default_name
 begin time read from input coords =     0.000 ps

 Number of triangulated 3-point waters found:        0

     Sum of charges for TI region  1 =  -0.99999900
     Skip neutralizing charges...

     Sum of charges for TI region  2 =   0.00000000
     Skip neutralizing charges...

--------------------------------------------------------------------------------
   4.  RESULTS
 NSTEP =        0   TIME(PS) =       0.000  TEMP(K) =   440.12  PRESS =     0.0
 Etot   =        18.0102  EKtot   =         7.8715  EPtot      =        10.1387
 BOND   =         0.0255  ANGLE   =         2.8088  DIHED      =         5.2200
 1-4 NB =         0.2885  1-4 EEL =         7.1351  VDWAALS    =        -0.0001
 EELEC  =        -5.3391  EHBOND  =         0.0000  RESTRAINT  =         0.0000
 DV/DL  =        -2.6260
 ------------------------------------------------------------------------------

      A V E R A G E S   O V E R    1000 S T E P S

 NSTEP =     1000   TIME(PS) =       2.000  TEMP(K) =   316.65  PRESS =     0.0
 Etot   =        19.4423  EKtot   =         5.6632  EPtot      =        13.7791
 BOND   =         0.9912  ANGLE   =         5.2901  DIHED      =         5.2916
 1-4 NB =         0.4016  1-4 EEL =         7.1447  VDWAALS    =        -0.0001
 EELEC  =        -5.3399  EHBOND  =         0.0000  RESTRAINT  =         0.0000
 DV/DL  =        -2.6389
 ------------------------------------------------------------------------------

      R M S  F L U C T U A T I O N S

 NSTEP =     1000   TIME(PS) =       2.000  TEMP(K) =    84.16  PRESS =     0.0
 Etot   =         1.7253  EKtot   =         1.5052  EPtot      =         1.3993
 BOND   =         0.7453  ANGLE   =         1.2285  DIHED      =         0.0929
 1-4 NB =         0.2974  1-4 EEL =         0.1606  VDWAALS    =         0.0000
 EELEC  =         0.0018  EHBOND  =         0.0000  RESTRAINT  =         0.0000
 DV/DL  =         0.2347
 ------------------------------------------------------------------------------

      A V E R A G E S   O V E R    1000 S T E P S

 NSTEP =     1000   TIME(PS) =       2.000  TEMP(K) =   316.65  PRESS =     0.0
 Etot   =        19.4423  EKtot   =         5.6632  EPtot      =        13.7791
 BOND   =         0.9912  ANGLE   =         5.2901  DIHED      =         5.2916
 1-4 NB =         0.4016  1-4 EEL =         7.1447  VDWAALS    =        -0.0001
 EELEC  =        -5.3399  EHBOND  =         0.0000  RESTRAINT  =         0.0000
 DV/DL  =        -2.6389
 ------------------------------------------------------------------------------

      R M S  F L U C T U A T I O N S

 NSTEP =     1000   TIME(PS) =       2.000  TEMP(K) =    84.16  PRESS =     0.0
 Etot   =         1.7253  EKtot   =         1.5052  EPtot      =         1.3993
 BOND   =         0.7453  ANGLE   =         1.2285  DIHED      =         0.0929
 1-4 NB =         0.2974  1-4 EEL =         0.1606  VDWAALS    =         0.0000
 EELEC  =         0.0018  EHBOND  =         0.0000  RESTRAINT  =         0.0000
 DV/DL  =         0.2347
 ------------------------------------------------------------------------------

      DV/DL, AVERAGES OVER    1000 STEPS

 NSTEP =     1000   TIME(PS) =       2.000  TEMP(K) =    84.16  PRESS =     0.0
 Etot   =         0.0000  EKtot   =         0.0000  EPtot      =        -2.6389
 BOND   =         0.0000  ANGLE   =         0.0000  DIHED      =         0.0000
 1-4 NB =         0.0000  1-4 EEL =       -10.4467  VDWAALS    =         0.0000
 EELEC  =         7.8079  EHBOND  =         0.0000  RESTRAINT  =         0.0000
 DV/DL  =        -2.6389
 ------------------------------------------------------------------------------

      A V E R A G E S   O V E R    1000 S T E P S

 NSTEP =     2000   TIME(PS) =       4.000  TEMP(K) =   250.67  PRESS =     0.0
 Etot   =        17.3578  EKtot   =         4.4831  EPtot      =        12.8747
 BOND   =         0.6492  ANGLE   =         4.7763  DIHED      =         5.2711
 1-4 NB =         0.3734  1-4 EEL =         7.1442  VDWAALS    =        -0.0001
 EELEC  =        -5.3394  EHBOND  =         0.0000  RESTRAINT  =         0.0000
 DV/DL  =        -2.6390
 ------------------------------------------------------------------------------

      R M S  F L U C T U A T I O N S

 NSTEP =     2000   TIME(PS) =       4.000  TEMP(K) =    86.66  PRESS =     0.0
 Etot   =         1.7339  EKtot   =         1.5499  EPtot      =         0.9912
 BOND   =         0.4972  ANGLE   =         0.8890  DIHED      =         0.0793
 1-4 NB =         0.2151  1-4 EEL =         0.1208  VDWAALS    =         0.0000
 EELEC  =         0.0017  EHBOND  =         0.0000  RESTRAINT  =         0.0000
 DV/DL  =         0.1767
 ------------------------------------------------------------------------------

      A V E R A G E S   O V E R    1000 S T E P S

 NSTEP =     2000   TIME(PS) =       4.000  TEMP(K) =   250.67  PRESS =     0.0
 Etot   =        17.3578  EKtot   =         4.4831  EPtot      =        12.8747
 BOND   =         0.6492  ANGLE   =         4.7763  DIHED      =         5.2711
 1-4 NB =         0.3734  1-4 EEL =         7.1442  VDWAALS    =        -0.0001
 EELEC  =        -5.3394  EHBOND  =         0.0000  RESTRAINT  =         0.0000
 DV/DL  =        -2.6390
 ------------------------------------------------------------------------------

      R M S  F L U C T U A T I O N S

 NSTEP =     2000   TIME(PS) =       4.000  TEMP(K) =    86.66  PRESS =     0.0
 Etot   =         1.7339  EKtot   =         1.5499  EPtot      =         0.9912
 BOND   =         0.4972  ANGLE   =         0.8890  DIHED      =         0.0793
 1-4 NB =         0.2151  1-4 EEL =         0.1208  VDWAALS    =         0.0000
 EELEC  =         0.0017  EHBOND  =         0.0000  RESTRAINT  =         0.0000
 DV/DL  =         0.1767
 ------------------------------------------------------------------------------

      DV/DL, AVERAGES OVER    1000 STEPS

 NSTEP =     2000   TIME(PS) =       4.000  TEMP(K) =    86.66  PRESS =     0.0
 Etot   =         0.0000  EKtot   =         0.0000  EPtot      =        -2.6390
 BOND   =         0.0000  ANGLE   =         0.0000  DIHED      =         0.0000
 1-4 NB =         0.0000  1-4 EEL =       -10.4460  VDWAALS    =         0.0000
 EELEC  =         7.8070  EHBOND  =         0.0000  RESTRAINT  =         0.0000
 DV/DL  =        -2.6390
 ------------------------------------------------------------------------------

      A V E R A G E S   O V E R    1000 S T E P S

 NSTEP =   500000   TIME(PS) =    1000.000  TEMP(K) =   265.97  PRESS =     0.0
 Etot   =        18.3508  EKtot   =         4.7569  EPtot      =        13.5940
 BOND   =         0.8111  ANGLE   =         5.3366  DIHED      =         5.2717
 1-4 NB =         0.3714  1-4 EEL =         7.1436  VDWAALS    =        -0.0001
 EELEC  =        -5.3402  EHBOND  =         0.0000  RESTRAINT  =         0.0000
 DV/DL  =        -2.6368
 ------------------------------------------------------------------------------

      R M S  F L U C T U A T I O N S

 NSTEP =   500000   TIME(PS) =    1000.000  TEMP(K) =    78.20  PRESS =     0.0
 Etot   =         1.5274  EKtot   =         1.3987  EPtot      =         1.1736
 BOND   =         0.5829  ANGLE   =         1.0371  DIHED      =         0.0870
 1-4 NB =         0.2117  1-4 EEL =         0.1085  VDWAALS    =         0.0000
 EELEC  =         0.0017  EHBOND  =         0.0000  RESTRAINT  =         0.0000
 DV/DL  =         0.1585
 ------------------------------------------------------------------------------

      A V E R A G E S   O V E R    1000 S T E P S

 NSTEP =   500000   TIME(PS) =    1000.000  TEMP(K) =   265.97  PRESS =     0.0
 Etot   =        18.3508  EKtot   =         4.7569  EPtot      =        13.5940
 BOND   =         0.8111  ANGLE   =         5.3366  DIHED      =         5.2717
 1-4 NB =         0.3714  1-4 EEL =         7.1436  VDWAALS    =        -0.0001
 EELEC  =        -5.3402  EHBOND  =         0.0000  RESTRAINT  =         0.0000
 DV/DL  =        -2.6368
 ------------------------------------------------------------------------------

      R M S  F L U C T U A T I O N S

 NSTEP =   500000   TIME(PS) =    1000.000  TEMP(K) =    78.20  PRESS =     0.0
 Etot   =         1.5274  EKtot   =         1.3987  EPtot      =         1.1736
 BOND   =         0.5829  ANGLE   =         1.0371  DIHED      =         0.0870
 1-4 NB =         0.2117  1-4 EEL =         0.1085  VDWAALS    =         0.0000
 EELEC  =         0.0017  EHBOND  =         0.0000  RESTRAINT  =         0.0000
 DV/DL  =         0.1585
 ------------------------------------------------------------------------------

      DV/DL, AVERAGES OVER    1000 STEPS

 NSTEP =   500000   TIME(PS) =    1000.000  TEMP(K) =    78.20  PRESS =     0.0
 Etot   =         0.0000  EKtot   =         0.0000  EPtot      =        -2.6368
 BOND   =         0.0000  ANGLE   =         0.0000  DIHED      =         0.0000
 1-4 NB =         0.0000  1-4 EEL =       -10.4451  VDWAALS    =         0.0000
 EELEC  =         7.8083  EHBOND  =         0.0000  RESTRAINT  =         0.0000
 DV/DL  =        -2.6368
 ------------------------------------------------------------------------------

      A V E R A G E S   O V E R  500000 S T E P S

 NSTEP =   500000   TIME(PS) =    1000.000  TEMP(K) =   303.08  PRESS =     0.0
 Etot   =        19.0691  EKtot   =         5.4205  EPtot      =        13.6487
 BOND   =         1.0075  ANGLE   =         5.1891  DIHED      =         5.2785
 1-4 NB =         0.3687  1-4 EEL =         7.1446  VDWAALS    =        -0.0001
 EELEC  =        -5.3397  EHBOND  =         0.0000  RESTRAINT  =         0.0000
 DV/DL  =        -2.6390
 ------------------------------------------------------------------------------

      R M S  F L U C T U A T I O N S

 NSTEP =   500000   TIME(PS) =    1000.000  TEMP(K) =    99.03  PRESS =     0.0
 Etot   =         2.2966  EKtot   =         1.7712  EPtot      =         1.4977
 BOND   =         0.8278  ANGLE   =         1.2175  DIHED      =         0.0875
 1-4 NB =         0.2108  1-4 EEL =         0.1125  VDWAALS    =         0.0000
 EELEC  =         0.0019  EHBOND  =         0.0000  RESTRAINT  =         0.0000
 DV/DL  =         0.1645
 ------------------------------------------------------------------------------

      A V E R A G E S   O V E R  500000 S T E P S

 NSTEP =   500000   TIME(PS) =    1000.000  TEMP(K) =   303.08  PRESS =     0.0
 Etot   =        19.0691  EKtot   =         5.4205  EPtot      =        13.6487
 BOND   =         1.0075  ANGLE   =         5.1891  DIHED      =         5.2785
 1-4 NB =         0.3687  1-4 EEL =         7.1446  VDWAALS    =        -0.0001
 EELEC  =        -5.3397  EHBOND  =         0.0000  RESTRAINT  =         0.0000
 DV/DL  =        -2.6390
 ------------------------------------------------------------------------------

      R M S  F L U C T U A T I O N S

 NSTEP =   500000   TIME(PS) =    1000.000  TEMP(K) =    99.03  PRESS =     0.0
 Etot   =         2.2966  EKtot   =         1.7712  EPtot      =         1.4977
 BOND   =         0.8278  ANGLE   =         1.2175  DIHED      =         0.0875
 1-4 NB =         0.2108  1-4 EEL =         0.1125  VDWAALS    =         0.0000
 EELEC  =         0.0019  EHBOND  =         0.0000  RESTRAINT  =         0.0000
 DV/DL  =         0.1645
 ------------------------------------------------------------------------------

      DV/DL, AVERAGES OVER  500000 STEPS

 NSTEP =   500000   TIME(PS) =    1000.000  TEMP(K) =    99.03  PRESS =     0.0
 Etot   =         0.0000  EKtot   =         0.0000  EPtot      =        -2.6390
 BOND   =         0.0000  ANGLE   =         0.0000  DIHED      =         0.0000
 1-4 NB =         0.0000  1-4 EEL =       -10.4466  VDWAALS    =         0.0000
 EELEC  =         7.8076  EHBOND  =         0.0000  RESTRAINT  =         0.0000
 DV/DL  =        -2.6390
 ------------------------------------------------------------------------------
