-------------------------------------------------------
          Amber 20 PMEMD                              2020
          -------------------------------------------------------

  [-O]verwriting output

File Assignments:

 Here is the input file:

 &cntrl
   nstlim=500000, nscm=1000,
   ntx=5, irest=1, ntpr=1000,
   tempi=300.0, temp0=300.0, ntt=3, gamma_ln=2.0,
   ntp=1, pres0=1.01325, taup=5.0,
   ntb=2, igb=0, cut=10.0,
   dt=0.002, ig=-1,
   ntc=2, ntf=2,
   iwrap=0,
   ntwr=1000, ntwx=50000, ntave=1000,
   ioutfm=1, ntwv=-1,
   ifsc = 0, icfe=1,
   clambda=0.95206,
   timask1=':1',
   timask2=':2', crgmask = ':2',
/

Note: ig = -1. Setting random seed to    61734 based on wallclock time in
      microseconds.

--------------------------------------------------------------------------------
   1.  RESOURCE   USE:
--------------------------------------------------------------------------------

 getting box info from netcdf restart file
 NATOM  =   20855 NTYPES =       6 NBONH =   20847 MBONA  =       6
 NTHETH =      12 MTHETA =       6 NPHIH =      24 MPHIA  =       2
 NHPARM =       0 NPARM  =       0 NNB   =   27832 NRES   =    6949
 NBONA  =       6 NTHETA =       6 NPHIA =       2 NUMBND =       5
 NUMANG =       4 NPTRA  =       3 NATYP =       6 NPHB   =       1
 IFBOX  =       2 NMXRS  =       7 IFCAP =       0 NEXTRA =       0
 NCOPY  =       0

     BOX TYPE: TRUNCATED OCTAHEDRON

--------------------------------------------------------------------------------
   2.  CONTROL  DATA  FOR  THE  RUN
--------------------------------------------------------------------------------

default_name

General flags:
     imin    =       0, nmropt  =       0

Nature and format of input:
     ntx     =       5, irest   =       1, ntrx    =       1

Nature and format of output:
     ntxo    =       2, ntpr    =    1000, ntrx    =       1, ntwr    =    1000
     iwrap   =       0, ntwx    =   50000, ntwv    =      -1, ntwe    =       0
     ioutfm  =       1, ntwprt  =       0, idecomp =       0, rbornstat=      0

Potential function:
     ntf     =       2, ntb     =       2, igb     =       0, nsnb    =      25
     ipol    =       0, gbsa    =       0, iesp    =       0
     dielc   =   1.00000, cut     =  10.00000, intdiel =   1.00000

Frozen or restrained atoms:
     ibelly  =       0, ntr     =       0

Molecular dynamics:
     nstlim  =    500000, nscm    =      1000, nrespa  =         1
     t       =   0.00000, dt      =   0.00200, vlimit  =  -1.00000

Langevin dynamics temperature regulation:
     ig      =   61734
     temp0   = 300.00000, tempi   = 300.00000, gamma_ln=   2.00000

Pressure regulation:
     ntp     =       1
     pres0   =   1.01325, comp    =  44.60000, taup    =   5.00000

SHAKE:
     ntc     =       2, jfastw  =       0
     tol     =   0.00001

Free energy options:
     icfe    =       1, ifsc    =       0, klambda =       1
     clambda =  0.9521, scalpha =  0.5000, scbeta  = 12.0000
     sceeorder =       2
     dynlmb =  0.0000 logdvdl =       0

Ewald parameters:
     verbose =       0, ew_type =       0, nbflag  =       1, use_pme =       1
     vdwmeth =       1, eedmeth =       1, netfrc  =       1
     Box X =   66.953   Box Y =   66.953   Box Z =   66.953
     Alpha =  109.471   Beta  =  109.471   Gamma =  109.471
     NFFT1 =   64       NFFT2 =   64       NFFT3 =   64
     Cutoff=   10.000   Tol   =0.100E-04
     Ewald Coefficient =  0.27511
     Interpolation order =    4
     TI Mask 1 :1; matches      7 atoms
     TI Mask 2 :2; matches      7 atoms
     TI region 1:   20848 atoms
     TI region 2:   20848 atoms
Removing charge of      -0.8188 from atom       8
Removing charge of      -0.8188 from atom       9
Removing charge of       0.8054 from atom      10
Removing charge of      -0.1021 from atom      11
Removing charge of      -0.0219 from atom      12
Removing charge of      -0.0219 from atom      13
Removing charge of      -0.0219 from atom      14
Total charge of  -0.99999900 removed from       7 atoms
     Checking for mismatched coordinates.

--------------------------------------------------------------------------------
   3.  ATOMIC COORDINATES AND VELOCITIES
--------------------------------------------------------------------------------

default_name
 begin time read from input coords =   200.000 ps

 Number of triangulated 3-point waters found:     6947

     Sum of charges for TI region  1 =  -0.99999900
     Skip neutralizing charges...

     Sum of charges for TI region  2 =   0.00000000
     Skip neutralizing charges...

--------------------------------------------------------------------------------
   4.  RESULTS
 NSTEP =     1000   TIME(PS) =     202.000  TEMP(K) =   299.36  PRESS =  -695.0
 Etot   =    -53034.7683  EKtot   =     12403.4677  EPtot      =    -65438.2360
 BOND   =         1.6467  ANGLE   =         5.4098  DIHED      =         5.2330
 1-4 NB =         0.3828  1-4 EEL =         0.5045  VDWAALS    =      9618.2664
 EELEC  =    -75069.6792  EHBOND  =         0.0000  RESTRAINT  =         0.0000
 EKCMT  =      6187.3577  VIRIAL  =      9608.0857  VOLUME     =    227960.9608
                                                    Density    =         0.9121
 DV/DL  =        17.2789
 ------------------------------------------------------------------------------

      A V E R A G E S   O V E R    1000 S T E P S

 NSTEP =     1000   TIME(PS) =     202.000  TEMP(K) =   298.93  PRESS =  -751.0
 Etot   =    -52967.5079  EKtot   =     12385.3631  EPtot      =    -65352.8710
 BOND   =         0.8709  ANGLE   =         5.4264  DIHED      =         5.2868
 1-4 NB =         0.4945  1-4 EEL =         0.5050  VDWAALS    =      9584.2562
 EELEC  =    -74949.7108  EHBOND  =         0.0000  RESTRAINT  =         0.0000
 EKCMT  =      6208.9218  VIRIAL  =      9930.3922  VOLUME     =    229456.0453
                                                    Density    =         0.9062
 DV/DL  =        12.1155
 ------------------------------------------------------------------------------

      R M S  F L U C T U A T I O N S

 NSTEP =     1000   TIME(PS) =     202.000  TEMP(K) =     1.79  PRESS =   116.6
 Etot   =        73.3816  EKtot   =        74.3461  EPtot      =        77.6953
 BOND   =         0.7373  ANGLE   =         1.0886  DIHED      =         0.0799
 1-4 NB =         0.2672  1-4 EEL =         0.0078  VDWAALS    =       104.6181
 EELEC  =       123.5781  EHBOND  =         0.0000  RESTRAINT  =         0.0000
 EKCMT  =        52.4911  VIRIAL  =       585.3538  VOLUME     =       901.8044
                                                    Density    =         0.0036
 DV/DL  =         7.5020
 ------------------------------------------------------------------------------

      A V E R A G E S   O V E R    1000 S T E P S

 NSTEP =     1000   TIME(PS) =     202.000  TEMP(K) =   298.93  PRESS =  -751.0
 Etot   =    -52967.5079  EKtot   =     12385.3631  EPtot      =    -65352.8710
 BOND   =         0.8709  ANGLE   =         5.4264  DIHED      =         5.2868
 1-4 NB =         0.4945  1-4 EEL =         0.5050  VDWAALS    =      9584.2562
 EELEC  =    -74949.7108  EHBOND  =         0.0000  RESTRAINT  =         0.0000
 EKCMT  =      6208.9218  VIRIAL  =      9930.3922  VOLUME     =    229456.0453
                                                    Density    =         0.9062
 DV/DL  =        12.1155
 ------------------------------------------------------------------------------

      R M S  F L U C T U A T I O N S

 NSTEP =     1000   TIME(PS) =     202.000  TEMP(K) =     1.79  PRESS =   116.6
 Etot   =        73.3816  EKtot   =        74.3461  EPtot      =        77.6953
 BOND   =         0.7373  ANGLE   =         1.0886  DIHED      =         0.0799
 1-4 NB =         0.2672  1-4 EEL =         0.0078  VDWAALS    =       104.6181
 EELEC  =       123.5781  EHBOND  =         0.0000  RESTRAINT  =         0.0000
 EKCMT  =        52.4911  VIRIAL  =       585.3538  VOLUME     =       901.8044
                                                    Density    =         0.0036
 DV/DL  =         7.5020
 ------------------------------------------------------------------------------

      DV/DL, AVERAGES OVER    1000 STEPS

 NSTEP =     1000   TIME(PS) =     202.000  TEMP(K) =     1.79  PRESS =     0.0
 Etot   =         0.0000  EKtot   =         0.0000  EPtot      =        12.1155
 BOND   =         0.0000  ANGLE   =         0.0000  DIHED      =         0.0000
 1-4 NB =         0.0000  1-4 EEL =       -10.5347  VDWAALS    =         0.0000
 EELEC  =        22.6501  EHBOND  =         0.0000  RESTRAINT  =         0.0000
 EKCMT  =         0.0000  VIRIAL  =         0.0000  VOLUME     =         0.0000
                                                    Density    =         0.0000
 DV/DL  =        12.1155
 ------------------------------------------------------------------------------

      A V E R A G E S   O V E R    1000 S T E P S

 NSTEP =     2000   TIME(PS) =     204.000  TEMP(K) =   300.44  PRESS =  -548.3
 Etot   =    -52997.4738  EKtot   =     12447.9608  EPtot      =    -65445.4346
 BOND   =         1.0520  ANGLE   =         4.8066  DIHED      =         5.2801
 1-4 NB =         0.4799  1-4 EEL =         0.5046  VDWAALS    =      9715.5352
 EELEC  =    -75173.0930  EHBOND  =         0.0000  RESTRAINT  =         0.0000
 EKCMT  =      6237.6590  VIRIAL  =      8923.3546  VOLUME     =    226838.9119
                                                    Density    =         0.9166
 DV/DL  =        14.2525
 ------------------------------------------------------------------------------

      R M S  F L U C T U A T I O N S

 NSTEP =     2000   TIME(PS) =     204.000  TEMP(K) =     1.91  PRESS =   117.5
 Etot   =        76.7680  EKtot   =        79.2219  EPtot      =        76.1023
 BOND   =         0.8732  ANGLE   =         1.0167  DIHED      =         0.0835
 1-4 NB =         0.2939  1-4 EEL =         0.0087  VDWAALS    =       119.8883
 EELEC  =       150.4317  EHBOND  =         0.0000  RESTRAINT  =         0.0000
 EKCMT  =        65.9712  VIRIAL  =       574.5422  VOLUME     =       639.2128
                                                    Density    =         0.0026
 DV/DL  =         7.2938
 ------------------------------------------------------------------------------

      A V E R A G E S   O V E R    1000 S T E P S

 NSTEP =     2000   TIME(PS) =     204.000  TEMP(K) =   300.44  PRESS =  -548.3
 Etot   =    -52997.4738  EKtot   =     12447.9608  EPtot      =    -65445.4346
 BOND   =         1.0520  ANGLE   =         4.8066  DIHED      =         5.2801
 1-4 NB =         0.4799  1-4 EEL =         0.5046  VDWAALS    =      9715.5352
 EELEC  =    -75173.0930  EHBOND  =         0.0000  RESTRAINT  =         0.0000
 EKCMT  =      6237.6590  VIRIAL  =      8923.3546  VOLUME     =    226838.9119
                                                    Density    =         0.9166
 DV/DL  =        14.2525
 ------------------------------------------------------------------------------

      R M S  F L U C T U A T I O N S

 NSTEP =     2000   TIME(PS) =     204.000  TEMP(K) =     1.91  PRESS =   117.5
 Etot   =        76.7680  EKtot   =        79.2219  EPtot      =        76.1023
 BOND   =         0.8732  ANGLE   =         1.0167  DIHED      =         0.0835
 1-4 NB =         0.2939  1-4 EEL =         0.0087  VDWAALS    =       119.8883
 EELEC  =       150.4317  EHBOND  =         0.0000  RESTRAINT  =         0.0000
 EKCMT  =        65.9712  VIRIAL  =       574.5422  VOLUME     =       639.2128
                                                    Density    =         0.0026
 DV/DL  =         7.2938
 ------------------------------------------------------------------------------

      DV/DL, AVERAGES OVER    1000 STEPS

 NSTEP =     2000   TIME(PS) =     204.000  TEMP(K) =     1.91  PRESS =     0.0
 Etot   =         0.0000  EKtot   =         0.0000  EPtot      =        14.2525
 BOND   =         0.0000  ANGLE   =         0.0000  DIHED      =         0.0000
 1-4 NB =         0.0000  1-4 EEL =       -10.5264  VDWAALS    =         0.0000
 EELEC  =        24.7790  EHBOND  =         0.0000  RESTRAINT  =         0.0000
 EKCMT  =         0.0000  VIRIAL  =         0.0000  VOLUME     =         0.0000
                                                    Density    =         0.0000
 DV/DL  =        14.2525
 ------------------------------------------------------------------------------

      A V E R A G E S   O V E R    1000 S T E P S

 NSTEP =   500000   TIME(PS) =    1200.000  TEMP(K) =   300.32  PRESS =   -39.9
 Etot   =    -53843.9548  EKtot   =     12443.2610  EPtot      =    -66287.2158
 BOND   =         0.7730  ANGLE   =         4.6350  DIHED      =         5.2544
 1-4 NB =         0.4841  1-4 EEL =         0.5044  VDWAALS    =      9918.1820
 EELEC  =    -76217.0486  EHBOND  =         0.0000  RESTRAINT  =         0.0000
 EKCMT  =      6248.9136  VIRIAL  =      6431.7120  VOLUME     =    212000.3354
                                                    Density    =         0.9808
 DV/DL  =        14.1951
 ------------------------------------------------------------------------------

      R M S  F L U C T U A T I O N S

 NSTEP =   500000   TIME(PS) =    1200.000  TEMP(K) =     1.64  PRESS =   128.9
 Etot   =       111.5055  EKtot   =        68.1147  EPtot      =        96.3813
 BOND   =         0.6552  ANGLE   =         0.7716  DIHED      =         0.0457
 1-4 NB =         0.2518  1-4 EEL =         0.0074  VDWAALS    =       118.9612
 EELEC  =       155.8103  EHBOND  =         0.0000  RESTRAINT  =         0.0000
 EKCMT  =        44.0741  VIRIAL  =       600.0929  VOLUME     =        45.1960
                                                    Density    =         0.0002
 DV/DL  =         8.4285
 ------------------------------------------------------------------------------

      A V E R A G E S   O V E R    1000 S T E P S

 NSTEP =   500000   TIME(PS) =    1200.000  TEMP(K) =   300.32  PRESS =   -39.9
 Etot   =    -53843.9548  EKtot   =     12443.2610  EPtot      =    -66287.2158
 BOND   =         0.7730  ANGLE   =         4.6350  DIHED      =         5.2544
 1-4 NB =         0.4841  1-4 EEL =         0.5044  VDWAALS    =      9918.1820
 EELEC  =    -76217.0486  EHBOND  =         0.0000  RESTRAINT  =         0.0000
 EKCMT  =      6248.9136  VIRIAL  =      6431.7120  VOLUME     =    212000.3354
                                                    Density    =         0.9808
 DV/DL  =        14.1951
 ------------------------------------------------------------------------------

      R M S  F L U C T U A T I O N S

 NSTEP =   500000   TIME(PS) =    1200.000  TEMP(K) =     1.64  PRESS =   128.9
 Etot   =       111.5055  EKtot   =        68.1147  EPtot      =        96.3813
 BOND   =         0.6552  ANGLE   =         0.7716  DIHED      =         0.0457
 1-4 NB =         0.2518  1-4 EEL =         0.0074  VDWAALS    =       118.9612
 EELEC  =       155.8103  EHBOND  =         0.0000  RESTRAINT  =         0.0000
 EKCMT  =        44.0741  VIRIAL  =       600.0929  VOLUME     =        45.1960
                                                    Density    =         0.0002
 DV/DL  =         8.4285
 ------------------------------------------------------------------------------

      DV/DL, AVERAGES OVER    1000 STEPS

 NSTEP =   500000   TIME(PS) =    1200.000  TEMP(K) =     1.64  PRESS =     0.0
 Etot   =         0.0000  EKtot   =         0.0000  EPtot      =        14.1951
 BOND   =         0.0000  ANGLE   =         0.0000  DIHED      =         0.0000
 1-4 NB =         0.0000  1-4 EEL =       -10.5212  VDWAALS    =         0.0000
 EELEC  =        24.7162  EHBOND  =         0.0000  RESTRAINT  =         0.0000
 EKCMT  =         0.0000  VIRIAL  =         0.0000  VOLUME     =         0.0000
                                                    Density    =         0.0000
 DV/DL  =        14.1951
 ------------------------------------------------------------------------------

      A V E R A G E S   O V E R  500000 S T E P S

 NSTEP =   500000   TIME(PS) =    1200.000  TEMP(K) =   300.11  PRESS =    -8.7
 Etot   =    -53804.2502  EKtot   =     12434.4811  EPtot      =    -66238.7313
 BOND   =         0.9646  ANGLE   =         5.1645  DIHED      =         5.2788
 1-4 NB =         0.4976  1-4 EEL =         0.5048  VDWAALS    =      9908.1539
 EELEC  =    -76159.2955  EHBOND  =         0.0000  RESTRAINT  =         0.0000
 EKCMT  =      6236.4703  VIRIAL  =      6278.0739  VOLUME     =    211845.4331
                                                    Density    =         0.9816
 DV/DL  =        12.7330
 ------------------------------------------------------------------------------

      R M S  F L U C T U A T I O N S

 NSTEP =   500000   TIME(PS) =    1200.000  TEMP(K) =     2.08  PRESS =   143.8
 Etot   =       167.1346  EKtot   =        86.2776  EPtot      =       142.3944
 BOND   =         0.7852  ANGLE   =         1.2191  DIHED      =         0.0872
 1-4 NB =         0.2971  1-4 EEL =         0.0084  VDWAALS    =       126.5229
 EELEC  =       218.3724  EHBOND  =         0.0000  RESTRAINT  =         0.0000
 EKCMT  =        60.8827  VIRIAL  =       664.9229  VOLUME     =      1475.3881
                                                    Density    =         0.0065
 DV/DL  =         8.7810
 ------------------------------------------------------------------------------

      A V E R A G E S   O V E R  500000 S T E P S

 NSTEP =   500000   TIME(PS) =    1200.000  TEMP(K) =   300.11  PRESS =    -8.7
 Etot   =    -53804.2502  EKtot   =     12434.4811  EPtot      =    -66238.7313
 BOND   =         0.9646  ANGLE   =         5.1645  DIHED      =         5.2788
 1-4 NB =         0.4976  1-4 EEL =         0.5048  VDWAALS    =      9908.1539
 EELEC  =    -76159.2955  EHBOND  =         0.0000  RESTRAINT  =         0.0000
 EKCMT  =      6236.4703  VIRIAL  =      6278.0739  VOLUME     =    211845.4331
                                                    Density    =         0.9816
 DV/DL  =        12.7330
 ------------------------------------------------------------------------------

      R M S  F L U C T U A T I O N S

 NSTEP =   500000   TIME(PS) =    1200.000  TEMP(K) =     2.08  PRESS =   143.8
 Etot   =       167.1346  EKtot   =        86.2776  EPtot      =       142.3944
 BOND   =         0.7852  ANGLE   =         1.2191  DIHED      =         0.0872
 1-4 NB =         0.2971  1-4 EEL =         0.0084  VDWAALS    =       126.5229
 EELEC  =       218.3724  EHBOND  =         0.0000  RESTRAINT  =         0.0000
 EKCMT  =        60.8827  VIRIAL  =       664.9229  VOLUME     =      1475.3881
                                                    Density    =         0.0065
 DV/DL  =         8.7810
 ------------------------------------------------------------------------------

      DV/DL, AVERAGES OVER  500000 STEPS

 NSTEP =   500000   TIME(PS) =    1200.000  TEMP(K) =     2.08  PRESS =     0.0
 Etot   =         0.0000  EKtot   =         0.0000  EPtot      =        12.7330
 BOND   =         0.0000  ANGLE   =         0.0000  DIHED      =         0.0000
 1-4 NB =         0.0000  1-4 EEL =       -10.5307  VDWAALS    =         0.0000
 EELEC  =        23.2636  EHBOND  =         0.0000  RESTRAINT  =         0.0000
 EKCMT  =         0.0000  VIRIAL  =         0.0000  VOLUME     =         0.0000
                                                    Density    =         0.0000
 DV/DL  =        12.7330
 ------------------------------------------------------------------------------
